MODEL ZINC06602548
REMARK  2 active torsions:
REMARK  status: ('A' for Active; 'I' for Inactive)
REMARK    1  A    between atoms: N1_4  and  C6_7 
REMARK    2  A    between atoms: C7_9  and  C9_12 
ROOT
ATOM      1  C6  <0> d           1.142  -0.671  -0.012  0.00  0.00     0.148 A 
ATOM      2  N2  <0> d           0.002  -0.004   0.002  0.00  0.00    -0.228 NA
ATOM      3  C7  <0> d          -0.016   1.327   0.009  0.00  0.00     0.076 A 
ATOM      4  C8  <0> d           1.166   2.012   0.002  0.00  0.00     0.085 A 
ATOM      5  S1  <0> d           2.335   0.659  -0.017  0.00  0.00    -0.068 SA
ENDROOT
BRANCH   3   6
ATOM      6  C9  <0> d          -1.306   2.059   0.019  0.00  0.00    -0.004 A 
ATOM      7  C14 <0> d          -1.319   3.452   0.033  0.00  0.00     0.053 A 
ATOM      8  C13 <0> d          -2.524   4.133   0.037  0.00  0.00     0.103 A 
ATOM      9  C12 <0> d          -3.722   3.425   0.036  0.00  0.00     0.102 A 
ATOM     10  O1  <0> d          -2.520   5.494   0.048  0.00  0.00    -0.346 OA
ATOM     11  C11 <0> d          -3.708   2.037   0.030  0.00  0.00     0.040 A 
ATOM     12  O2  <0> d          -4.916   4.079   0.037  0.00  0.00    -0.346 OA
ATOM     13  C10 <0> d          -2.509   1.354   0.021  0.00  0.00     0.017 A 
ATOM     14  C16 <0> d          -4.895   5.458   0.419  0.00  0.00     0.202 C 
ATOM     15  C15 <0> d          -3.740   6.145  -0.323  0.00  0.00     0.202 C 
ENDBRANCH   3   6
BRANCH   1  16
ATOM     16  N1  <0> d           1.355  -2.040  -0.021  0.00  0.00    -0.259 NA
ATOM     17  C3  <0> d           2.792  -2.348  -0.037  0.00  0.00     0.125 C 
ATOM     18  C2  <0> d           2.985  -3.864  -0.127  0.00  0.00     0.249 C 
ATOM     19  N3  <0> d           2.334  -4.497   1.040  0.00  0.00    -0.073 N 
ATOM     20  C1  <0> d           2.550  -5.959   1.007  0.00  0.00     0.269 C 
ATOM     21  C5  <0> d           0.886  -4.199   1.032  0.00  0.00     0.249 C 
ATOM     22  H20 <0> d           2.749  -4.118   1.899  0.00  0.00     0.279 HD
ATOM     23  C4  <0> d           0.694  -2.684   1.122  0.00  0.00     0.125 C 
ENDBRANCH   1  16
TORSDOF 2
ENDMDL
MODEL ZINC06609520
REMARK  5 active torsions:
REMARK  status: ('A' for Active; 'I' for Inactive)
REMARK    1  A    between atoms: C3_5  and  C4_7 
REMARK    2  A    between atoms: C4_7  and  S1_8 
REMARK    3  A    between atoms: S1_8  and  C5_9 
REMARK    4  A    between atoms: C7_12  and  C14_20 
REMARK    5  A    between atoms: N4_13  and  C8_14 
ROOT
ATOM      1  C5  <0> d           5.856   0.506  -1.468  0.00  0.00     0.174 A 
ATOM      2  N3  <0> d           6.448   0.488  -0.294  0.00  0.00    -0.234 NA
ATOM      3  C6  <0> d           7.776   0.444  -0.460  0.00  0.00     0.150 A 
ATOM      4  C7  <0> d           8.039   0.443  -1.793  0.00  0.00     0.069 A 
ATOM      5  N4  <0> d           6.814   0.483  -2.439  0.00  0.00    -0.289 N 
ENDROOT
BRANCH   1   6
ATOM      6  S1  <0> d           4.116   0.560  -1.741  0.00  0.00    -0.083 SA
BRANCH   6   7
ATOM      7  C4  <0> d           3.530   0.568  -0.029  0.00  0.00     0.170 C 
BRANCH   7   8
ATOM      8  C3  <0> d           2.023   0.612  -0.014  0.00  0.00     0.178 A 
ATOM      9  N2  <0> d           1.222  -0.414  -0.012  0.00  0.00    -0.126 NA
ATOM     10  N1  <0> d           0.002  -0.004   0.002  0.00  0.00    -0.127 NA
ATOM     11  C2  <0> d          -0.016   1.298   0.009  0.00  0.00     0.165 A 
ATOM     12  C1  <0> d          -1.242   2.174   0.020  0.00  0.00     0.102 C 
ATOM     13  O1  <0> d           1.261   1.718  -0.001  0.00  0.00    -0.277 OA
ENDBRANCH   7   8
ENDBRANCH   6   7
ENDBRANCH   1   6
BRANCH   5  14
ATOM     14  C8  <0> d           6.599   0.498  -3.824  0.00  0.00     0.042 A 
ATOM     15  C13 <0> d           6.023   1.608  -4.427  0.00  0.00     0.030 A 
ATOM     16  C12 <0> d           5.814   1.619  -5.792  0.00  0.00     0.002 A 
ATOM     17  C11 <0> d           6.177   0.527  -6.558  0.00  0.00     0.000 A 
ATOM     18  C10 <0> d           6.750  -0.581  -5.960  0.00  0.00     0.002 A 
ATOM     19  C9  <0> d           6.967  -0.596  -4.596  0.00  0.00     0.030 A 
ENDBRANCH   5  14
BRANCH   4  20
ATOM     20  C14 <0> d           9.372   0.408  -2.430  0.00  0.00    -0.007 A 
ATOM     21  C19 <0> d          10.519   0.264  -1.647  0.00  0.00     0.014 A 
ATOM     22  C18 <0> d          11.761   0.231  -2.248  0.00  0.00     0.001 A 
ATOM     23  C17 <0> d          11.870   0.340  -3.623  0.00  0.00     0.000 A 
ATOM     24  C16 <0> d          10.738   0.483  -4.404  0.00  0.00     0.001 A 
ATOM     25  C15 <0> d           9.490   0.512  -3.817  0.00  0.00     0.014 A 
ENDBRANCH   4  20
TORSDOF 5
ENDMDL
MODEL ZINC00174288
REMARK  2 active torsions:
REMARK  status: ('A' for Active; 'I' for Inactive)
REMARK    1  A    between atoms: C4_4  and  C7_8 
REMARK    2  A    between atoms: C8_9  and  C10_12 
ROOT
ATOM      1  C7  <0> d          -0.018   1.503   0.010  0.00  0.00     0.284 C 
ATOM      2  C8  <0> d           0.095   3.432   1.489  0.00  0.00     0.296 C 
ATOM      3  C9  <0> d           1.565   3.570   1.014  0.00  0.00     0.120 C 
ATOM      4  S1  <0> d           1.677   2.195  -0.207  0.00  0.00    -0.129 SA
ATOM      5  N1  <0> d          -0.355   2.030   1.370  0.00  0.00    -0.043 N 
ATOM      6  H8  <0> d           0.115   1.459   2.083  0.00  0.00     0.280 HD
ATOM      7  H9  <0> d          -1.371   1.985   1.511  0.00  0.00     0.280 HD
ENDROOT
BRANCH   1   8
ATOM      8  C4  <0> d           0.002  -0.004   0.002  0.00  0.00     0.025 A 
ATOM      9  C3  <0> d           0.708  -0.692   0.973  0.00  0.00     0.044 A 
ATOM     10  C2  <0> d           0.726  -2.075   0.965  0.00  0.00     0.024 A 
ATOM     11 Cl2  <0> d           1.570   0.181   2.201  0.00  0.00    -0.084 Cl
ATOM     12  C1  <0> d           0.039  -2.770  -0.013  0.00  0.00     0.003 A 
ATOM     13  C6  <0> d          -0.666  -2.083  -0.983  0.00  0.00     0.024 A 
ATOM     14  C5  <0> d          -0.690  -0.700  -0.973  0.00  0.00     0.044 A 
ATOM     15 Cl1  <0> d          -1.581   0.162  -2.188  0.00  0.00    -0.084 Cl
ENDBRANCH   1   8
BRANCH   2  16
ATOM     16  C10 <0> d          -0.005   3.862   2.930  0.00  0.00     0.205 C 
ATOM     17  O1  <0> d          -0.035   3.031   3.808  0.00  0.00    -0.646 OA
ATOM     18  O2  <0> d          -0.062   5.167   3.239  0.00  0.00    -0.646 OA
ENDBRANCH   2  16
TORSDOF 2
ENDMDL
MODEL ZINC68593667
REMARK  2 active torsions:
REMARK  status: ('A' for Active; 'I' for Inactive)
REMARK    1  A    between atoms: C5_6  and  C13_15 
REMARK    2  A    between atoms: C6_7  and  C7_8 
ROOT
ATOM      1  C1  <0> d          -0.018   1.465   0.010  0.00  0.00     0.270 C 
ATOM      2  N1  <0> d           0.002  -0.004   0.002  0.00  0.00    -0.066 N 
ATOM      3  C2  <0> d           0.681  -0.476  -1.210  0.00  0.00     0.235 C 
ATOM      4  C3  <0> d           0.634  -2.005  -1.264  0.00  0.00     0.029 C 
ATOM      5  C4  <0> d           1.336  -2.575  -0.029  0.00  0.00     0.019 C 
ATOM      6  C5  <0> d           0.666  -2.018   1.230  0.00  0.00     0.122 C 
ATOM      7  C6  <0> d           0.712  -0.489   1.192  0.00  0.00     0.234 C 
ATOM      8  H16 <0> d          -0.945  -0.352   0.012  0.00  0.00     0.280 HD
ENDROOT
BRANCH   7   9
ATOM      9  C7  <0> d           0.054   0.065   2.429  0.00  0.00    -0.025 A 
ATOM     10  C12 <0> d           0.828   0.491   3.491  0.00  0.00     0.033 A 
ATOM     11  C11 <0> d           0.224   1.005   4.625  0.00  0.00     0.034 A 
ATOM     12  C10 <0> d          -1.155   1.080   4.699  0.00  0.00     0.024 A 
ATOM     13 Cl1  <0> d           1.196   1.548   5.957  0.00  0.00    -0.084 Cl
ATOM     14  C9  <0> d          -1.929   0.647   3.639  0.00  0.00     0.002 A 
ATOM     15  C8  <0> d          -1.325   0.140   2.504  0.00  0.00     0.009 A 
ENDBRANCH   7   9
BRANCH   6  16
ATOM     16  C13 <0> d           1.397  -2.514   2.451  0.00  0.00     0.179 C 
ATOM     17  O1  <0> d           2.364  -3.245   2.327  0.00  0.00    -0.648 OA
ATOM     18  O2  <0> d           1.021  -2.183   3.563  0.00  0.00    -0.648 OA
ENDBRANCH   6  16
TORSDOF 2
ENDMDL
MODEL ZINC00297444
REMARK  6 active torsions:
REMARK  status: ('A' for Active; 'I' for Inactive)
REMARK    1  A    between atoms: C4_4  and  C7_7 
REMARK    2  A    between atoms: C7_7  and  C8_9 
REMARK    3  A    between atoms: C8_9  and  O2_10 
REMARK    4  A    between atoms: O2_10  and  C9_11 
REMARK    5  A    between atoms: C9_11  and  C10_13 
REMARK    6  A    between atoms: C11_14  and  C12_15 
ROOT
ATOM      1  O2  <0> d          -2.403   1.001   0.019  0.00  0.00    -0.310 OA
ENDROOT
BRANCH   1   2
ATOM      2  C8  <0> d          -1.330   1.944   0.019  0.00  0.00     0.263 C 
BRANCH   2   3
ATOM      3  C7  <0> d          -0.014   1.208   0.009  0.00  0.00     0.183 C 
ATOM      4  O1  <0> d           0.002  -0.004   0.002  0.00  0.00    -0.290 OA
BRANCH   3   5
ATOM      5  C4  <0> d           1.250   1.961   0.001  0.00  0.00     0.012 A 
ATOM      6  C3  <0> d           2.473   1.282  -0.015  0.00  0.00     0.015 A 
ATOM      7  C2  <0> d           3.653   1.995  -0.023  0.00  0.00     0.001 A 
ATOM      8  C1  <0> d           3.630   3.379  -0.015  0.00  0.00     0.000 A 
ATOM      9  C6  <0> d           2.424   4.058   0.000  0.00  0.00     0.001 A 
ATOM     10  C5  <0> d           1.235   3.360   0.003  0.00  0.00     0.015 A 
ENDBRANCH   3   5
ENDBRANCH   2   3
ENDBRANCH   1   2
BRANCH   1  11
ATOM     11  C9  <0> d          -3.657   1.500   0.028  0.00  0.00     0.283 C 
ATOM     12  O3  <0> d          -3.833   2.704   0.035  0.00  0.00    -0.260 OA
BRANCH  11  13
ATOM     13  C10 <0> d          -4.766   0.624   0.028  0.00  0.00     0.085 C 
ATOM     14  C11 <0> d          -6.027   1.126   0.037  0.00  0.00     0.043 C 
BRANCH  14  15
ATOM     15  C12 <0> d          -7.138   0.248   0.037  0.00  0.00     0.075 A 
ATOM     16  O4  <0> d          -7.086  -1.100   0.030  0.00  0.00    -0.323 OA
ATOM     17  C15 <0> d          -8.332  -1.594   0.034  0.00  0.00     0.142 A 
ATOM     18  C14 <0> d          -9.213  -0.569   0.043  0.00  0.00     0.027 A 
ATOM     19  C13 <0> d          -8.467   0.619   0.051  0.00  0.00     0.039 A 
ENDBRANCH  14  15
ENDBRANCH  11  13
ENDBRANCH   1  11
TORSDOF 6
ENDMDL
MODEL ZINC46145500
REMARK  5 active torsions:
REMARK  status: ('A' for Active; 'I' for Inactive)
REMARK    1  A    between atoms: C3_4  and  C4_7 
REMARK    2  A    between atoms: C4_7  and  N3_8 
REMARK    3  A    between atoms: C7_11  and  S1_19 
REMARK    4  A    between atoms: S1_19  and  N4_22 
REMARK    5  A    between atoms: N4_22  and  C13_23 
ROOT
ATOM      1  N3  <0> d          -1.894  -3.632  -1.390  0.00  0.00    -0.306 N 
ATOM      2  C5  <0> d          -2.994  -3.070  -2.054  0.00  0.00     0.072 A 
ATOM      3  C6  <0> d          -3.615  -1.935  -1.560  0.00  0.00     0.057 A 
ATOM      4  C7  <0> d          -4.698  -1.397  -2.230  0.00  0.00     0.081 A 
ATOM      5  C8  <0> d          -5.162  -1.989  -3.391  0.00  0.00     0.028 A 
ATOM      6  C9  <0> d          -4.545  -3.122  -3.890  0.00  0.00     0.040 A 
ATOM      7  C10 <0> d          -3.460  -3.666  -3.225  0.00  0.00     0.096 A 
ATOM      8  O2  <0> d          -2.840  -4.777  -3.703  0.00  0.00    -0.340 OA
ATOM      9  C11 <0> d          -1.431  -4.875  -3.477  0.00  0.00     0.279 C 
ATOM     10  C12 <0> d          -1.119  -4.524  -2.045  0.00  0.00     0.249 C 
ATOM     11  O3  <0> d          -0.178  -5.043  -1.482  0.00  0.00    -0.271 OA
ENDROOT
BRANCH   4  12
ATOM     12  S1  <0> d          -5.490   0.046  -1.603  0.00  0.00     0.259 S 
ATOM     13  O4  <0> d          -6.817   0.035  -2.113  0.00  0.00    -0.201 OA
ATOM     14  O5  <0> d          -5.210   0.091  -0.211  0.00  0.00    -0.201 OA
BRANCH  12  15
ATOM     15  N4  <0> d          -4.733   1.354  -2.280  0.00  0.00    -0.311 N 
ATOM     16  H11 <0> d          -4.238   1.972  -1.720  0.00  0.00     0.172 HD
BRANCH  15  17
ATOM     17  C13 <0> d          -4.812   1.578  -3.726  0.00  0.00     0.093 C 
ATOM     18  C18 <0> d          -4.863   3.081  -4.007  0.00  0.00     0.026 C 
ATOM     19  C17 <0> d          -4.945   3.315  -5.517  0.00  0.00     0.002 C 
ATOM     20  C16 <0> d          -3.713   2.712  -6.194  0.00  0.00     0.000 C 
ATOM     21  C15 <0> d          -3.662   1.209  -5.913  0.00  0.00     0.002 C 
ATOM     22  C14 <0> d          -3.580   0.975  -4.403  0.00  0.00     0.026 C 
ENDBRANCH  15  17
ENDBRANCH  12  15
ENDBRANCH   4  12
BRANCH   1  23
ATOM     23  C4  <0> d          -1.588  -3.254  -0.008  0.00  0.00     0.215 C 
BRANCH  23  24
ATOM     24  C3  <0> d          -0.663  -2.065  -0.006  0.00  0.00     0.174 A 
ATOM     25  N1  <0> d          -1.044  -0.783   0.003  0.00  0.00    -0.207 NA
ATOM     26  C2  <0> d           0.002  -0.004   0.002  0.00  0.00     0.169 A 
ATOM     27  C1  <0> d          -0.018   1.503   0.010  0.00  0.00     0.102 C 
ATOM     28  O1  <0> d           1.097  -0.774  -0.013  0.00  0.00    -0.197 OA
ATOM     29  N2  <0> d           0.638  -2.118  -0.012  0.00  0.00    -0.109 NA
ENDBRANCH  23  24
ENDBRANCH   1  23
TORSDOF 5
ENDMDL
MODEL ZINC46469871
REMARK  6 active torsions:
REMARK  status: ('A' for Active; 'I' for Inactive)
REMARK    1  A    between atoms: C7_7  and  N1_8 
REMARK       I    between atoms: N1_8  and  C8_9 
REMARK    2  A    between atoms: C8_9  and  C9_11 
REMARK    3  A    between atoms: C11_13  and  S1_18 
REMARK    4  A    between atoms: S1_18  and  N2_21 
REMARK    5  A    between atoms: N2_21  and  C16_22 
REMARK    6  A    between atoms: C19_25  and  O4_28 
ROOT
ATOM      1  C9  <0> d          -2.251  -0.527   6.039  0.00  0.00     0.039 A 
ATOM      2  C10 <0> d          -1.653   0.713   5.803  0.00  0.00     0.042 A 
ATOM      3  C11 <0> d          -1.754   1.714   6.747  0.00  0.00     0.080 A 
ATOM      4  C12 <0> d          -2.445   1.492   7.925  0.00  0.00     0.026 A 
ATOM      5  C13 <0> d          -3.039   0.265   8.165  0.00  0.00     0.009 A 
ATOM      6  C14 <0> d          -2.951  -0.743   7.227  0.00  0.00    -0.046 A 
ATOM      7  C15 <0> d          -3.603  -2.076   7.487  0.00  0.00     0.049 C 
ENDROOT
BRANCH   3   8
ATOM      8  S1  <0> d          -1.002   3.279   6.451  0.00  0.00     0.263 S 
ATOM      9  O2  <0> d          -0.833   3.895   7.720  0.00  0.00    -0.200 OA
ATOM     10  O3  <0> d           0.086   3.046   5.567  0.00  0.00    -0.200 OA
BRANCH   8  11
ATOM     11  N2  <0> d          -2.098   4.201   5.620  0.00  0.00    -0.281 N 
ATOM     12  H15 <0> d          -2.440   5.019   6.012  0.00  0.00     0.179 HD
BRANCH  11  13
ATOM     13  C16 <0> d          -2.531   3.798   4.351  0.00  0.00     0.042 A 
ATOM     14  C21 <0> d          -3.811   3.285   4.185  0.00  0.00     0.033 A 
ATOM     15  C20 <0> d          -4.240   2.893   2.932  0.00  0.00     0.039 A 
ATOM     16  C19 <0> d          -3.388   3.001   1.842  0.00  0.00     0.068 A 
ATOM     17  C18 <0> d          -2.108   3.509   2.008  0.00  0.00     0.039 A 
ATOM     18  C17 <0> d          -1.680   3.907   3.260  0.00  0.00     0.033 A 
BRANCH  16  19
ATOM     19  O4  <0> d          -3.809   2.610   0.609  0.00  0.00    -0.356 OA
ATOM     20  C22 <0> d          -5.139   2.097   0.511  0.00  0.00     0.210 C 
ENDBRANCH  16  19
ENDBRANCH  11  13
ENDBRANCH   8  11
ENDBRANCH   3   8
BRANCH   1  21
ATOM     21  C8  <0> d          -2.147  -1.604   5.032  0.00  0.00     0.256 C 
ATOM     22  N1  <0> d          -1.588  -1.353   3.832  0.00  0.00    -0.322 N 
ATOM     23  H8  <0> d          -1.177  -0.492   3.659  0.00  0.00     0.169 HD
ATOM     24  O1  <0> d          -2.566  -2.717   5.287  0.00  0.00    -0.267 OA
BRANCH  22  25
ATOM     25  C7  <0> d          -1.601  -2.335   2.836  0.00  0.00     0.041 A 
ATOM     26  C2  <0> d          -1.607  -1.967   1.496  0.00  0.00    -0.035 A 
ATOM     27  C1  <0> d          -1.599  -0.509   1.114  0.00  0.00     0.050 C 
ATOM     28  C3  <0> d          -1.614  -2.939   0.515  0.00  0.00     0.009 A 
ATOM     29  C4  <0> d          -1.621  -4.277   0.865  0.00  0.00     0.001 A 
ATOM     30  C5  <0> d          -1.621  -4.646   2.197  0.00  0.00     0.002 A 
ATOM     31  C6  <0> d          -1.614  -3.680   3.183  0.00  0.00     0.030 A 
ENDBRANCH  22  25
ENDBRANCH   1  21
TORSDOF 6
ENDMDL
MODEL ZINC23484371
REMARK  6 active torsions:
REMARK  status: ('A' for Active; 'I' for Inactive)
REMARK    1  A    between atoms: C6_6  and  N1_9 
REMARK    2  A    between atoms: N1_9  and  S1_10 
REMARK    3  A    between atoms: S1_10  and  C9_13 
REMARK    4  A    between atoms: C12_16  and  C15_19 
REMARK       I    between atoms: C15_19  and  N2_21 
REMARK    5  A    between atoms: N2_21  and  C17_23 
REMARK    6  A    between atoms: C17_23  and  C18_24 
ROOT
ATOM      1  C9  <0> d           2.489  -3.840   2.221  0.00  0.00     0.079 A 
ATOM      2  C10 <0> d           3.101  -3.753   0.984  0.00  0.00     0.026 A 
ATOM      3  C11 <0> d           4.467  -3.579   0.898  0.00  0.00     0.018 A 
ATOM      4  C12 <0> d           5.231  -3.490   2.062  0.00  0.00     0.032 A 
ATOM      5  C13 <0> d           4.607  -3.579   3.308  0.00  0.00     0.018 A 
ATOM      6  C14 <0> d           3.240  -3.748   3.380  0.00  0.00     0.026 A 
ENDROOT
BRANCH   1   7
ATOM      7  S1  <0> d           0.744  -4.063   2.323  0.00  0.00     0.263 S 
ATOM      8  O1  <0> d           0.483  -4.655   3.588  0.00  0.00    -0.200 OA
ATOM      9  O2  <0> d           0.340  -4.666   1.101  0.00  0.00    -0.200 OA
BRANCH   7  10
ATOM     10  N1  <0> d           0.059  -2.555   2.355  0.00  0.00    -0.280 N 
ATOM     11  H10 <0> d          -0.471  -2.280   3.119  0.00  0.00     0.179 HD
BRANCH  10  12
ATOM     12  C6  <0> d           0.245  -1.680   1.282  0.00  0.00     0.049 A 
ATOM     13  C5  <0> d           0.306  -2.173  -0.015  0.00  0.00     0.031 A 
ATOM     14  C4  <0> d           0.491  -1.305  -1.073  0.00  0.00     0.003 A 
ATOM     15  C3  <0> d           0.614   0.053  -0.843  0.00  0.00     0.007 A 
ATOM     16  C2  <0> d           0.553   0.546   0.448  0.00  0.00    -0.054 A 
ATOM     17  C1  <0> d           0.688   2.027   0.694  0.00  0.00     0.049 C 
ATOM     18  C7  <0> d           0.375  -0.316   1.511  0.00  0.00    -0.029 A 
ATOM     19  C8  <0> d           0.315   0.222   2.917  0.00  0.00     0.051 C 
ENDBRANCH  10  12
ENDBRANCH   7  10
ENDBRANCH   1   7
BRANCH   4  20
ATOM     20  C15 <0> d           6.696  -3.304   1.977  0.00  0.00     0.253 C 
ATOM     21  O3  <0> d           7.282  -2.692   2.849  0.00  0.00    -0.267 OA
ATOM     22  N2  <0> d           7.380  -3.813   0.934  0.00  0.00    -0.348 N 
ATOM     23  C16 <0> d           6.692  -4.642  -0.059  0.00  0.00     0.153 C 
BRANCH  22  24
ATOM     24  C17 <0> d           8.812  -3.536   0.792  0.00  0.00     0.167 C 
BRANCH  24  25
ATOM     25  C18 <0> d           9.602  -4.603   1.506  0.00  0.00    -0.002 A 
ATOM     26  C23 <0> d           9.815  -5.829   0.900  0.00  0.00     0.124 A 
ATOM     27  C22 <0> d          10.546  -6.806   1.555  0.00  0.00     0.043 A 
ATOM     28  F1  <0> d           9.314  -6.071  -0.331  0.00  0.00    -0.205 F 
ATOM     29  C21 <0> d          11.053  -6.559   2.816  0.00  0.00     0.003 A 
ATOM     30  C20 <0> d          10.836  -5.336   3.422  0.00  0.00     0.001 A 
ATOM     31  C19 <0> d          10.111  -4.358   2.767  0.00  0.00     0.012 A 
ENDBRANCH  24  25
ENDBRANCH  22  24
ENDBRANCH   4  20
TORSDOF 6
ENDMDL
MODEL ZINC32664956
REMARK  6 active torsions:
REMARK  status: ('A' for Active; 'I' for Inactive)
REMARK    1  A    between atoms: C2_2  and  C3_3 
REMARK    2  A    between atoms: C2_2  and  N1_12 
REMARK    3  A    between atoms: C6_6  and  C9_9 
REMARK    4  A    between atoms: N1_12  and  C12_13 
REMARK    5  A    between atoms: C12_13  and  C14_15 
REMARK       I    between atoms: C14_15  and  N2_17 
REMARK       I    between atoms: N2_17  and  C15_18 
REMARK       I    between atoms: C15_18  and  N3_20 
REMARK    6  A    between atoms: N3_20  and  C16_21 
ROOT
ATOM      1  C12 <0> d           2.162  -0.532   0.959  0.00  0.00     0.308 C 
ATOM      2  C13 <0> d           2.532  -1.853   0.280  0.00  0.00     0.053 C 
ENDROOT
BRANCH   1   3
ATOM      3  N1  <0> d           0.713  -0.491   1.192  0.00  0.00     0.105 N 
ATOM      4  H17 <0> d           0.492   0.072   2.000  0.00  0.00     0.317 HD
BRANCH   3   5
ATOM      5  C2  <0> d           0.002  -0.004   0.002  0.00  0.00     0.250 C 
ATOM      6  C1  <0> d          -0.019   1.526   0.010  0.00  0.00     0.048 C 
BRANCH   5   7
ATOM      7  C3  <0> d          -1.412  -0.526   0.013  0.00  0.00    -0.026 A 
ATOM      8  C8  <0> d          -2.000  -0.954  -1.163  0.00  0.00     0.010 A 
ATOM      9  C7  <0> d          -3.295  -1.436  -1.153  0.00  0.00     0.008 A 
ATOM     10  C6  <0> d          -4.006  -1.482   0.032  0.00  0.00    -0.055 A 
ATOM     11  C5  <0> d          -3.420  -1.049   1.207  0.00  0.00     0.008 A 
ATOM     12  C4  <0> d          -2.123  -0.571   1.197  0.00  0.00     0.010 A 
BRANCH  10  13
ATOM     13  C9  <0> d          -5.419  -2.005   0.043  0.00  0.00     0.010 C 
ATOM     14  C10 <0> d          -6.288  -1.144  -0.876  0.00  0.00     0.015 C 
ATOM     15  C11 <0> d          -5.431  -3.452  -0.452  0.00  0.00     0.015 C 
ENDBRANCH  10  13
ENDBRANCH   5   7
ENDBRANCH   3   5
ENDBRANCH   1   3
BRANCH   1  16
ATOM     16  C14 <0> d           2.886  -0.426   2.277  0.00  0.00     0.258 C 
ATOM     17  O1  <0> d           2.256  -0.325   3.308  0.00  0.00    -0.271 OA
ATOM     18  N2  <0> d           4.233  -0.443   2.309  0.00  0.00    -0.277 N 
ATOM     19  C15 <0> d           4.880  -0.348   3.487  0.00  0.00     0.323 C 
ATOM     20  H21 <0> d           4.737  -0.524   1.484  0.00  0.00     0.173 HD
ATOM     21  O2  <0> d           4.249  -0.247   4.521  0.00  0.00    -0.247 OA
ATOM     22  N3  <0> d           6.228  -0.365   3.519  0.00  0.00    -0.338 N 
ATOM     23  H22 <0> d           6.732  -0.445   2.695  0.00  0.00     0.164 HD
BRANCH  22  24
ATOM     24  C16 <0> d           6.931  -0.261   4.800  0.00  0.00     0.086 C 
ATOM     25  C21 <0> d           8.314  -0.904   4.676  0.00  0.00     0.025 C 
ATOM     26  C20 <0> d           9.049  -0.796   6.014  0.00  0.00     0.002 C 
ATOM     27  C19 <0> d           9.204   0.678   6.393  0.00  0.00     0.000 C 
ATOM     28  C18 <0> d           7.822   1.321   6.517  0.00  0.00     0.002 C 
ATOM     29  C17 <0> d           7.087   1.213   5.179  0.00  0.00     0.025 C 
ENDBRANCH  22  24
ENDBRANCH   1  16
TORSDOF 6
ENDMDL
MODEL ZINC68958755
REMARK  6 active torsions:
REMARK  status: ('A' for Active; 'I' for Inactive)
REMARK    1  A    between atoms: C3_4  and  C5_7 
REMARK    2  A    between atoms: C5_7  and  C6_8 
REMARK       I    between atoms: C6_8  and  N2_10 
REMARK    3  A    between atoms: N2_10  and  C7_11 
REMARK    4  A    between atoms: C10_14  and  N3_17 
REMARK    5  A    between atoms: N3_17  and  S2_18 
REMARK    6  A    between atoms: S2_18  and  C13_21 
ROOT
ATOM      1  C7  <0> d          -4.856  -2.715   2.300  0.00  0.00     0.034 A 
ATOM      2  C8  <0> d          -4.622  -1.633   3.138  0.00  0.00     0.032 A 
ATOM      3  C9  <0> d          -5.459  -1.395   4.210  0.00  0.00     0.032 A 
ATOM      4  C10 <0> d          -6.536  -2.238   4.450  0.00  0.00     0.042 A 
ATOM      5  C11 <0> d          -6.771  -3.320   3.611  0.00  0.00     0.032 A 
ATOM      6  C12 <0> d          -5.936  -3.555   2.537  0.00  0.00     0.032 A 
ENDROOT
BRANCH   4   7
ATOM      7  N3  <0> d          -7.385  -1.998   5.535  0.00  0.00    -0.281 N 
ATOM      8  H12 <0> d          -7.011  -1.785   6.405  0.00  0.00     0.179 HD
BRANCH   7   9
ATOM      9  S2  <0> d          -9.027  -2.075   5.336  0.00  0.00     0.263 S 
ATOM     10  O2  <0> d          -9.300  -3.314   4.696  0.00  0.00    -0.200 OA
ATOM     11  O3  <0> d          -9.605  -1.719   6.585  0.00  0.00    -0.200 OA
BRANCH   9  12
ATOM     12  C13 <0> d          -9.474  -0.809   4.195  0.00  0.00     0.083 A 
ATOM     13  C18 <0> d          -9.607  -1.106   2.852  0.00  0.00     0.070 A 
ATOM     14  C17 <0> d          -9.962  -0.114   1.955  0.00  0.00     0.156 A 
ATOM     15  C16 <0> d         -10.175   1.181   2.405  0.00  0.00     0.154 A 
ATOM     16  F1  <0> d         -10.098  -0.404   0.643  0.00  0.00    -0.203 F 
ATOM     17  C15 <0> d         -10.036   1.476   3.750  0.00  0.00     0.047 A 
ATOM     18  F2  <0> d         -10.518   2.152   1.531  0.00  0.00    -0.203 F 
ATOM     19  C14 <0> d          -9.685   0.481   4.643  0.00  0.00     0.028 A 
ENDBRANCH   9  12
ENDBRANCH   7   9
ENDBRANCH   4   7
BRANCH   1  20
ATOM     20  N2  <0> d          -4.006  -2.956   1.212  0.00  0.00    -0.327 N 
ATOM     21  C6  <0> d          -4.508  -3.440   0.059  0.00  0.00     0.227 C 
ATOM     22  O1  <0> d          -5.680  -3.746  -0.011  0.00  0.00    -0.273 OA
ATOM     23  H7  <0> d          -3.056  -2.775   1.290  0.00  0.00     0.169 HD
BRANCH  21  24
ATOM     24  C5  <0> d          -3.614  -3.600  -1.143  0.00  0.00     0.163 C 
BRANCH  24  25
ATOM     25  C3  <0> d          -4.414  -4.155  -2.294  0.00  0.00     0.050 A 
ATOM     26  N1  <0> d          -5.099  -5.275  -2.180  0.00  0.00    -0.250 NA
ATOM     27  C2  <0> d          -5.793  -5.755  -3.181  0.00  0.00     0.071 A 
ATOM     28  C1  <0> d          -6.627  -7.010  -3.227  0.00  0.00     0.078 C 
ATOM     29  S1  <0> d          -5.524  -4.633  -4.407  0.00  0.00    -0.085 SA
ATOM     30  C4  <0> d          -4.463  -3.523  -3.495  0.00  0.00     0.079 A 
ENDBRANCH  24  25
ENDBRANCH  21  24
ENDBRANCH   1  20
TORSDOF 6
ENDMDL
MODEL ZINC27626839
REMARK  7 active torsions:
REMARK  status: ('A' for Active; 'I' for Inactive)
REMARK    1  A    between atoms: C2_2  and  O1_3 
REMARK    2  A    between atoms: O1_3  and  C3_4 
REMARK    3  A    between atoms: C6_7  and  C9_10 
REMARK       I    between atoms: C9_10  and  N1_12 
REMARK    4  A    between atoms: N1_12  and  C10_13 
REMARK    5  A    between atoms: C10_13  and  C11_14 
REMARK       I    between atoms: C11_14  and  N2_16 
REMARK    6  A    between atoms: N2_16  and  C12_17 
REMARK    7  A    between atoms: C12_17  and  C13_18 
ROOT
ATOM      1  C9  <0> d           1.142  -6.031   1.762  0.00  0.00     0.252 C 
ATOM      2  O2  <0> d           0.665  -6.773   0.925  0.00  0.00    -0.268 OA
ATOM      3  N1  <0> d           1.777  -6.543   2.834  0.00  0.00    -0.348 N 
ATOM      4  H10 <0> d           2.157  -5.951   3.501  0.00  0.00     0.163 HD
ENDROOT
BRANCH   3   5
ATOM      5  C10 <0> d           1.894  -7.995   2.991  0.00  0.00     0.225 C 
BRANCH   5   6
ATOM      6  C11 <0> d           2.642  -8.304   4.263  0.00  0.00     0.235 C 
ATOM      7  O3  <0> d           3.039  -7.400   4.968  0.00  0.00    -0.272 OA
ATOM      8  N2  <0> d           2.870  -9.584   4.616  0.00  0.00    -0.355 N 
ATOM      9  H13 <0> d           2.553 -10.307   4.052  0.00  0.00     0.162 HD
BRANCH   8  10
ATOM     10  C12 <0> d           3.598  -9.884   5.852  0.00  0.00     0.168 C 
BRANCH  10  11
ATOM     11  C13 <0> d           3.718 -11.378   6.014  0.00  0.00     0.000 A 
ATOM     12  S1  <0> d           2.611 -12.512   6.835  0.00  0.00    -0.105 SA
ATOM     13  C16 <0> d           3.524 -14.017   6.536  0.00  0.00     0.050 A 
ATOM     14  C15 <0> d           4.598 -13.560   5.847  0.00  0.00     0.008 A 
ATOM     15  C14 <0> d           4.698 -12.207   5.579  0.00  0.00     0.017 A 
ENDBRANCH  10  11
ENDBRANCH   8  10
ENDBRANCH   5   6
ENDBRANCH   3   5
BRANCH   1  16
ATOM     16  C6  <0> d           1.024  -4.568   1.603  0.00  0.00     0.032 A 
ATOM     17  C5  <0> d           0.365  -4.035   0.492  0.00  0.00     0.020 A 
ATOM     18  C4  <0> d           0.257  -2.670   0.347  0.00  0.00     0.038 A 
ATOM     19  C3  <0> d           0.802  -1.822   1.306  0.00  0.00     0.068 A 
ATOM     20  C8  <0> d           1.462  -2.349   2.409  0.00  0.00     0.038 A 
ATOM     21  C7  <0> d           1.570  -3.713   2.563  0.00  0.00     0.020 A 
BRANCH  19  22
ATOM     22  O1  <0> d           0.693  -0.477   1.160  0.00  0.00    -0.352 OA
BRANCH  22  23
ATOM     23  C2  <0> d           0.002  -0.004   0.002  0.00  0.00     0.171 C 
ATOM     24  C1  <0> d          -0.019   1.526   0.010  0.00  0.00     0.034 C 
ENDBRANCH  22  23
ENDBRANCH  19  22
ENDBRANCH   1  16
TORSDOF 7
ENDMDL
MODEL ZINC24354177
REMARK  3 active torsions:
REMARK  status: ('A' for Active; 'I' for Inactive)
REMARK    1  A    between atoms: C6_8  and  C8_11 
REMARK       I    between atoms: C8_11  and  N2_13 
REMARK    2  A    between atoms: N2_13  and  C10_15 
REMARK    3  A    between atoms: C10_15  and  C11_16 
ROOT
ATOM      1  C8  <0> d           2.914  -1.200   2.153  0.00  0.00     0.243 C 
ATOM      2  O2  <0> d           2.302  -1.541   3.143  0.00  0.00    -0.271 OA
ATOM      3  N2  <0> d           4.175  -1.634   1.957  0.00  0.00    -0.350 N 
ATOM      4  C9  <0> d           4.953  -1.134   0.821  0.00  0.00     0.153 C 
ENDROOT
BRANCH   1   5
ATOM      5  C6  <0> d           2.264  -0.290   1.142  0.00  0.00     0.190 C 
ATOM      6  N1  <0> d           1.287   0.594   1.814  0.00  0.00    -0.320 N 
ATOM      7  C2  <0> d           0.547   1.393   0.800  0.00  0.00     0.081 C 
ATOM      8  C5  <0> d           0.808   0.877   3.043  0.00  0.00     0.222 C 
ATOM      9  C1  <0> d           1.282   2.672   0.393  0.00  0.00     0.051 C 
ATOM     10  S1  <0> d           0.381   0.195  -0.583  0.00  0.00    -0.135 SA
ATOM     11  C3  <0> d          -0.820   1.673   1.444  0.00  0.00     0.051 C 
ATOM     12  C7  <0> d           1.472  -1.134   0.091  0.00  0.00     0.111 C 
ATOM     13  C4  <0> d          -0.434   1.734   2.943  0.00  0.00     0.106 C 
ATOM     14  O1  <0> d           1.305   0.498   4.082  0.00  0.00    -0.273 OA
ENDBRANCH   1   5
BRANCH   3  15
ATOM     15  C10 <0> d           4.767  -2.605   2.880  0.00  0.00     0.164 C 
BRANCH  15  16
ATOM     16  C11 <0> d           4.479  -4.002   2.392  0.00  0.00    -0.040 A 
ATOM     17  C16 <0> d           5.361  -4.629   1.532  0.00  0.00     0.009 A 
ATOM     18  C15 <0> d           5.098  -5.912   1.088  0.00  0.00     0.001 A 
ATOM     19  C14 <0> d           3.950  -6.563   1.497  0.00  0.00     0.000 A 
ATOM     20  C13 <0> d           3.066  -5.934   2.353  0.00  0.00     0.001 A 
ATOM     21  C12 <0> d           3.330  -4.653   2.801  0.00  0.00     0.009 A 
ENDBRANCH  15  16
ENDBRANCH   3  15
TORSDOF 3
ENDMDL
MODEL ZINC69528435
REMARK  4 active torsions:
REMARK  status: ('A' for Active; 'I' for Inactive)
REMARK    1  A    between atoms: C3_3  and  C5_6 
REMARK    2  A    between atoms: C6_8  and  C7_12 
REMARK    3  A    between atoms: C7_12  and  N4_13 
REMARK       I    between atoms: N4_13  and  C8_14 
REMARK    4  A    between atoms: C8_14  and  C9_16 
ROOT
ATOM      1  C7  <0> d           6.755  -1.122  -0.077  0.00  0.00     0.203 C 
ENDROOT
BRANCH   1   2
ATOM      2  C6  <0> d           5.595  -0.161  -0.057  0.00  0.00     0.140 A 
ATOM      3  N1  <0> d           4.330  -0.489  -0.048  0.00  0.00    -0.209 NA
ATOM      4  C5  <0> d           3.574   0.619  -0.029  0.00  0.00     0.205 A 
ATOM      5  N3  <0> d           4.368   1.670  -0.032  0.00  0.00    -0.150 NA
ATOM      6  N2  <0> d           5.684   1.181  -0.044  0.00  0.00    -0.261 N 
ATOM      7  H1  <0> d           6.499   1.708  -0.047  0.00  0.00     0.190 HD
BRANCH   4   8
ATOM      8  C3  <0> d           2.096   0.655  -0.014  0.00  0.00     0.124 A 
ATOM      9  C2  <0> d           1.326   1.774  -0.001  0.00  0.00     0.043 A 
ATOM     10  C1  <0> d          -0.016   1.343   0.009  0.00  0.00     0.027 A 
ATOM     11  C4  <0> d           0.002  -0.004   0.002  0.00  0.00     0.142 A 
ATOM     12  O1  <0> d           1.280  -0.417  -0.012  0.00  0.00    -0.319 OA
ENDBRANCH   4   8
ENDBRANCH   1   2
BRANCH   1  13
ATOM     13  N4  <0> d           7.067  -1.540   1.292  0.00  0.00    -0.350 N 
ATOM     14  C8  <0> d           8.076  -2.405   1.519  0.00  0.00     0.255 C 
ATOM     15  O2  <0> d           8.727  -2.837   0.588  0.00  0.00    -0.268 OA
ATOM     16  H7  <0> d           6.548  -1.195   2.035  0.00  0.00     0.163 HD
BRANCH  14  17
ATOM     17  C9  <0> d           8.390  -2.826   2.898  0.00  0.00     0.070 A 
ATOM     18  C14 <0> d           9.437  -3.723   3.137  0.00  0.00     0.135 A 
ATOM     19  C13 <0> d           9.729  -4.108   4.432  0.00  0.00     0.085 A 
ATOM     20  F1  <0> d          10.164  -4.207   2.106  0.00  0.00    -0.205 F 
ATOM     21  C12 <0> d           8.980  -3.616   5.488  0.00  0.00     0.119 A 
ATOM     22  C11 <0> d           7.938  -2.731   5.255  0.00  0.00     0.043 A 
ATOM     23  F2  <0> d           9.267  -4.000   6.752  0.00  0.00    -0.206 F 
ATOM     24  C10 <0> d           7.640  -2.335   3.970  0.00  0.00     0.023 A 
ENDBRANCH  14  17
ENDBRANCH   1  13
TORSDOF 4
ENDMDL
MODEL ZINC58461588
REMARK  4 active torsions:
REMARK  status: ('A' for Active; 'I' for Inactive)
REMARK    1  A    between atoms: S1_2  and  C2_5 
REMARK    2  A    between atoms: C2_5  and  C3_6 
REMARK    3  A    between atoms: C6_9  and  N1_12 
REMARK       I    between atoms: N1_12  and  C9_13 
REMARK       I    between atoms: C9_13  and  N2_15 
REMARK    4  A    between atoms: N2_15  and  C10_16 
ROOT
ATOM      1  N1  <0> d           1.280  -6.011  -2.149  0.00  0.00    -0.309 N 
ATOM      2  C9  <0> d           0.268  -6.702  -2.710  0.00  0.00     0.321 C 
ATOM      3  O3  <0> d          -0.691  -6.112  -3.168  0.00  0.00    -0.247 OA
ATOM      4  N2  <0> d           0.320  -8.048  -2.764  0.00  0.00    -0.338 N 
ATOM      5  H10 <0> d           2.075  -6.476  -1.845  0.00  0.00     0.170 HD
ATOM      6  H11 <0> d           1.085  -8.519  -2.399  0.00  0.00     0.164 HD
ENDROOT
BRANCH   1   7
ATOM      7  C6  <0> d           1.184  -4.622  -2.006  0.00  0.00     0.036 A 
ATOM      8  C5  <0> d           0.532  -3.866  -2.972  0.00  0.00     0.030 A 
ATOM      9  C4  <0> d           0.439  -2.496  -2.827  0.00  0.00     0.010 A 
ATOM     10  C3  <0> d           0.993  -1.876  -1.722  0.00  0.00    -0.044 A 
ATOM     11  C8  <0> d           1.647  -2.625  -0.762  0.00  0.00     0.010 A 
ATOM     12  C7  <0> d           1.739  -3.997  -0.897  0.00  0.00     0.030 A 
BRANCH  10  13
ATOM     13  C2  <0> d           0.889  -0.381  -1.568  0.00  0.00     0.178 C 
BRANCH  13  14
ATOM     14  S1  <0> d           2.317   0.409  -2.359  0.00  0.00     0.144 S 
ATOM     15  C1  <0> d           2.011   2.174  -2.069  0.00  0.00     0.161 C 
ATOM     16  O1  <0> d           2.249   0.166  -3.757  0.00  0.00    -0.228 OA
ATOM     17  O2  <0> d           3.489   0.034  -1.649  0.00  0.00    -0.228 OA
ENDBRANCH  13  14
ENDBRANCH  10  13
ENDBRANCH   1   7
BRANCH   4  18
ATOM     18  C10 <0> d          -0.780  -8.799  -3.374  0.00  0.00     0.086 C 
ATOM     19  C16 <0> d          -0.273 -10.079  -3.844  0.00  0.00     0.025 C 
ATOM     20  C15 <0> d          -1.354 -10.912  -4.563  0.00  0.00     0.002 C 
ATOM     21  C14 <0> d          -2.212 -11.581  -3.523  0.00  0.00     0.000 C 
ATOM     22  C13 <0> d          -3.473 -10.763  -3.185  0.00  0.00     0.000 C 
ATOM     23  C12 <0> d          -3.192  -9.252  -3.069  0.00  0.00     0.002 C 
ATOM     24  C11 <0> d          -1.911  -8.960  -2.337  0.00  0.00     0.025 C 
ENDBRANCH   4  18
TORSDOF 4
ENDMDL
MODEL ZINC69702409
REMARK  3 active torsions:
REMARK  status: ('A' for Active; 'I' for Inactive)
REMARK    1  A    between atoms: C3_3  and  C7_8 
REMARK    2  A    between atoms: C8_10  and  C10_13 
REMARK       I    between atoms: C10_13  and  N2_15 
REMARK    3  A    between atoms: C13_18  and  O2_21 
ROOT
ATOM      1  C7  <0> d           3.688   2.205   0.400  0.00  0.00     0.108 A 
ATOM      2  N1  <0> d           4.925   1.747   0.342  0.00  0.00    -0.235 NA
ATOM      3  C8  <0> d           5.895   2.587   0.011  0.00  0.00     0.132 A 
ATOM      4  C9  <0> d           5.582   3.893  -0.258  0.00  0.00     0.089 A 
ATOM      5  S1  <0> d           3.913   3.918  -0.046  0.00  0.00    -0.079 SA
ENDROOT
BRANCH   3   6
ATOM      6  C10 <0> d           7.291   2.122  -0.067  0.00  0.00     0.273 C 
ATOM      7  O1  <0> d           8.193   2.926  -0.208  0.00  0.00    -0.266 OA
ATOM      8  N2  <0> d           7.569   0.806   0.019  0.00  0.00    -0.346 N 
ATOM      9  C15 <0> d           8.959   0.338   0.109  0.00  0.00     0.128 C 
ATOM     10  C11 <0> d           6.487  -0.189   0.018  0.00  0.00     0.128 C 
ATOM     11  C14 <0> d           9.208  -0.696  -0.986  0.00  0.00     0.051 C 
ATOM     12  C13 <0> d           8.162  -1.809  -0.882  0.00  0.00     0.121 C 
ATOM     13  C12 <0> d           6.765  -1.218  -1.083  0.00  0.00     0.051 C 
BRANCH  12  14
ATOM     14  O2  <0> d           8.412  -2.792  -1.889  0.00  0.00    -0.395 OA
ATOM     15  H15 <0> d           9.282  -3.210  -1.823  0.00  0.00     0.210 HD
ENDBRANCH  12  14
ENDBRANCH   3   6
BRANCH   1  16
ATOM     16  C3  <0> d           2.441   1.486   0.740  0.00  0.00     0.001 A 
ATOM     17  C2  <0> d           1.220   2.161   0.738  0.00  0.00     0.014 A 
ATOM     18  C1  <0> d           0.059   1.485   1.055  0.00  0.00     0.003 A 
ATOM     19  C6  <0> d           0.104   0.140   1.375  0.00  0.00     0.024 A 
ATOM     20  C5  <0> d           1.313  -0.536   1.379  0.00  0.00     0.035 A 
ATOM     21  C4  <0> d           2.481   0.129   1.063  0.00  0.00     0.038 A 
ATOM     22 Cl1  <0> d           1.359  -2.224   1.782  0.00  0.00    -0.084 Cl
ENDBRANCH   1  16
TORSDOF 3
ENDMDL
MODEL ZINC19848049
REMARK  4 active torsions:
REMARK  status: ('A' for Active; 'I' for Inactive)
REMARK    1  A    between atoms: C3_3  and  C8_14 
REMARK    2  A    between atoms: C4_4  and  S1_7 
REMARK    3  A    between atoms: S1_7  and  C6_8 
REMARK    4  A    between atoms: C8_14  and  N5_15 
ROOT
ATOM      1  C1  <0> d          -0.013   1.361  -0.111  0.00  0.00     0.020 A 
ATOM      2  C2  <0> d           1.181   2.063  -0.128  0.00  0.00     0.019 A 
ATOM      3  C3  <0> d           2.375   1.345  -0.009  0.00  0.00     0.043 A 
ATOM      4  C4  <0> d           2.315  -0.052   0.122  0.00  0.00     0.114 A 
ATOM      5  N1  <0> d           1.146  -0.674   0.133  0.00  0.00    -0.253 NA
ATOM      6  C5  <0> d           0.009  -0.016   0.022  0.00  0.00     0.118 A 
ENDROOT
BRANCH   3   7
ATOM      7  C8  <0> d           3.675   2.044  -0.022  0.00  0.00     0.105 C 
ATOM      8  N6  <0> d           3.921   3.011   0.861  0.00  0.00    -0.385 N 
ATOM      9  H7  <0> d           3.246   3.257   1.512  0.00  0.00     0.157 HD
ATOM     10  H8  <0> d           4.776   3.470   0.852  0.00  0.00     0.157 HD
BRANCH   7  11
ATOM     11  N5  <0> d           4.604   1.707  -0.918  0.00  0.00    -0.385 N 
ATOM     12  H6  <0> d           4.399   1.057  -1.608  0.00  0.00     0.157 HD
ATOM     13  H9  <0> d           5.485   2.111  -0.878  0.00  0.00     0.157 HD
ENDBRANCH   7  11
ENDBRANCH   3   7
BRANCH   4  14
ATOM     14  S1  <0> d           3.804  -0.983   0.273  0.00  0.00    -0.030 SA
BRANCH  14  15
ATOM     15  C6  <0> d           3.252  -2.651   0.410  0.00  0.00     0.190 A 
ATOM     16  N4  <0> d           2.000  -3.056   0.397  0.00  0.00    -0.214 NA
ATOM     17  C7  <0> d           1.956  -4.383   0.520  0.00  0.00     0.257 A 
ATOM     18  N3  <0> d           3.174  -4.844   0.621  0.00  0.00    -0.166 NA
ATOM     19  N2  <0> d           4.038  -3.739   0.552  0.00  0.00    -0.254 N 
ATOM     20  H1  <0> d           5.007  -3.755   0.598  0.00  0.00     0.191 HD
ENDBRANCH  14  15
ENDBRANCH   4  14
TORSDOF 4
ENDMDL
MODEL ZINC06809971
REMARK  3 active torsions:
REMARK  status: ('A' for Active; 'I' for Inactive)
REMARK    1  A    between atoms: C3_3  and  C15_22 
REMARK    2  A    between atoms: N2_8  and  C9_15 
REMARK    3  A    between atoms: C6_10  and  C7_12 
ROOT
ATOM      1  C1  <0> d           2.244   1.384   1.423  0.00  0.00     0.070 C 
ATOM      2  C2  <0> d           1.379   1.856   2.563  0.00  0.00     0.027 A 
ATOM      3  C3  <0> d           0.029   1.897   2.394  0.00  0.00     0.073 A 
ATOM      4  S1  <0> d          -0.564   2.497   3.974  0.00  0.00    -0.057 SA
ATOM      5  C4  <0> d           1.067   2.663   4.773  0.00  0.00     0.242 A 
ATOM      6  N1  <0> d           1.969   2.230   3.722  0.00  0.00    -0.342 N 
ATOM      7  C5  <0> d           3.422   2.193   3.906  0.00  0.00     0.154 C 
ATOM      8  N2  <0> d           1.155   1.948   6.034  0.00  0.00    -0.219 N 
ATOM      9  N3  <0> d           1.412   2.749   7.135  0.00  0.00    -0.157 NA
ATOM     10  C6  <0> d           1.564   4.050   7.046  0.00  0.00     0.164 A 
ATOM     11  S2  <0> d           1.360   4.385   5.300  0.00  0.00    -0.037 SA
ENDROOT
BRANCH   8  12
ATOM     12  C9  <0> d           0.994   0.565   6.129  0.00  0.00     0.057 A 
ATOM     13  C14 <0> d           1.090  -0.064   7.365  0.00  0.00     0.033 A 
ATOM     14  C13 <0> d           0.929  -1.432   7.457  0.00  0.00     0.026 A 
ATOM     15  C12 <0> d           0.674  -2.178   6.319  0.00  0.00     0.034 A 
ATOM     16  C11 <0> d           0.578  -1.554   5.086  0.00  0.00     0.026 A 
ATOM     17 Cl1  <0> d           0.474  -3.898   6.437  0.00  0.00    -0.084 Cl
ATOM     18  C10 <0> d           0.732  -0.186   4.989  0.00  0.00     0.033 A 
ENDBRANCH   8  12
BRANCH   3  19
ATOM     19  C15 <0> d          -0.720   1.548   1.256  0.00  0.00     0.164 C 
ATOM     20  O2  <0> d          -0.167   1.053   0.294  0.00  0.00    -0.292 OA
ATOM     21  C16 <0> d          -2.208   1.788   1.230  0.00  0.00     0.097 C 
ENDBRANCH   3  19
BRANCH  10  22
ATOM     22  C7  <0> d           1.828   4.972   8.087  0.00  0.00     0.182 C 
ATOM     23  O1  <0> d           1.943   6.155   7.837  0.00  0.00    -0.291 OA
ATOM     24  C8  <0> d           1.967   4.486   9.507  0.00  0.00     0.099 C 
ENDBRANCH  10  22
TORSDOF 3
ENDMDL
MODEL ZINC69813491
REMARK  5 active torsions:
REMARK  status: ('A' for Active; 'I' for Inactive)
REMARK    1  A    between atoms: C2_2  and  C3_3 
REMARK    2  A    between atoms: C2_2  and  N3_10 
REMARK    3  A    between atoms: C3_3  and  N1_5 
REMARK    4  A    between atoms: N3_10  and  C8_11 
REMARK    5  A    between atoms: C8_11  and  C9_12 
ROOT
ATOM      1  C9  <0> d           2.851  -0.582   2.343  0.00  0.00     0.007 A 
ATOM      2  C10 <0> d           3.706  -1.658   2.241  0.00  0.00     0.034 A 
ATOM      3  C11 <0> d           4.381  -2.120   3.374  0.00  0.00     0.045 A 
ATOM      4  C12 <0> d           4.186  -1.486   4.604  0.00  0.00     0.026 A 
ATOM      5  C13 <0> d           3.328  -0.411   4.693  0.00  0.00     0.044 A 
ATOM      6  C14 <0> d           2.665   0.046   3.565  0.00  0.00     0.124 A 
ATOM      7  F1  <0> d           1.830   1.104   3.657  0.00  0.00    -0.205 F 
ATOM      8  C15 <0> d           5.270  -3.238   3.275  0.00  0.00     0.099 C 
ATOM      9  N4  <0> d           5.976  -4.125   3.196  0.00  0.00    -0.191 NA
ENDROOT
BRANCH   1  10
ATOM     10  C8  <0> d           2.122  -0.083   1.122  0.00  0.00     0.274 C 
BRANCH  10  11
ATOM     11  N3  <0> d           0.713  -0.491   1.192  0.00  0.00    -0.065 N 
ATOM     12  H12 <0> d           0.290  -0.099   2.020  0.00  0.00     0.278 HD
ATOM     13  H18 <0> d           0.655  -1.497   1.230  0.00  0.00     0.278 HD
BRANCH  11  14
ATOM     14  C2  <0> d           0.002  -0.004   0.002  0.00  0.00     0.206 C 
ATOM     15  C1  <0> d          -0.019   1.526   0.010  0.00  0.00     0.042 C 
BRANCH  14  16
ATOM     16  C3  <0> d          -1.433  -0.534   0.013  0.00  0.00     0.135 C 
ATOM     17  C4  <0> d          -1.413  -2.063   0.004  0.00  0.00     0.036 C 
BRANCH  16  18
ATOM     18  N1  <0> d          -2.142  -0.048  -1.174  0.00  0.00    -0.275 N 
ATOM     19  N2  <0> d          -2.955   1.090  -1.240  0.00  0.00    -0.185 NA
ATOM     20  C7  <0> d          -3.408   1.199  -2.463  0.00  0.00     0.140 A 
ATOM     21  C6  <0> d          -2.906   0.129  -3.211  0.00  0.00     0.040 A 
ATOM     22  C5  <0> d          -2.131  -0.623  -2.395  0.00  0.00     0.114 A 
ENDBRANCH  16  18
ENDBRANCH  14  16
ENDBRANCH  11  14
ENDBRANCH  10  11
ENDBRANCH   1  10
TORSDOF 5
ENDMDL
MODEL ZINC06823585
REMARK  7 active torsions:
REMARK  status: ('A' for Active; 'I' for Inactive)
REMARK    1  A    between atoms: C2_2  and  N1_3 
REMARK    2  A    between atoms: N1_3  and  C3_4 
REMARK    3  A    between atoms: C11_14  and  N2_15 
REMARK       I    between atoms: N2_15  and  C12_16 
REMARK    4  A    between atoms: C12_16  and  C13_18 
REMARK    5  A    between atoms: C13_18  and  C14_19 
REMARK    6  A    between atoms: C17_22  and  O5_27 
REMARK    7  A    between atoms: C18_23  and  O4_25 
ROOT
ATOM      1  C3  <0> d           2.153   4.297  -0.894  0.00  0.00     0.054 A 
ATOM      2  C4  <0> d           0.917   3.500  -0.837  0.00  0.00     0.021 A 
ATOM      3  C5  <0> d           0.706   2.438  -1.718  0.00  0.00     0.016 A 
ATOM      4  C6  <0> d          -0.462   1.711  -1.641  0.00  0.00     0.001 A 
ATOM      5  C7  <0> d          -1.425   2.033  -0.696  0.00  0.00     0.003 A 
ATOM      6  C8  <0> d          -1.226   3.077   0.183  0.00  0.00     0.038 A 
ATOM      7  C9  <0> d          -0.056   3.823   0.122  0.00  0.00     0.091 A 
ATOM      8  O1  <0> d           0.150   4.850   0.974  0.00  0.00    -0.273 OA
ATOM      9  C10 <0> d           1.270   5.589   0.939  0.00  0.00     0.317 A 
ATOM     10  O2  <0> d           1.402   6.504   1.733  0.00  0.00    -0.257 OA
ATOM     11  C11 <0> d           2.296   5.335   0.011  0.00  0.00     0.133 A 
ENDROOT
BRANCH  11  12
ATOM     12  N2  <0> d           3.456   6.128   0.002  0.00  0.00    -0.320 N 
ATOM     13  C12 <0> d           3.389   7.416  -0.390  0.00  0.00     0.226 C 
ATOM     14  O3  <0> d           2.314   7.915  -0.649  0.00  0.00    -0.273 OA
ATOM     15  H11 <0> d           4.305   5.749   0.278  0.00  0.00     0.169 HD
BRANCH  13  16
ATOM     16  C13 <0> d           4.648   8.236  -0.505  0.00  0.00     0.141 C 
BRANCH  16  17
ATOM     17  C14 <0> d           4.300   9.630  -0.958  0.00  0.00    -0.047 A 
ATOM     18  C19 <0> d           4.023  10.610  -0.022  0.00  0.00     0.047 A 
ATOM     19  C18 <0> d           3.703  11.893  -0.437  0.00  0.00     0.102 A 
ATOM     20  C17 <0> d           3.661  12.192  -1.795  0.00  0.00     0.101 A 
ATOM     21  C16 <0> d           3.939  11.205  -2.727  0.00  0.00     0.040 A 
ATOM     22  C15 <0> d           4.263   9.929  -2.307  0.00  0.00     0.010 A 
BRANCH  19  23
ATOM     23  O4  <0> d           3.430  12.858   0.482  0.00  0.00    -0.353 OA
ATOM     24  C20 <0> d           3.492  12.479   1.859  0.00  0.00     0.210 C 
ENDBRANCH  19  23
BRANCH  20  25
ATOM     25  O5  <0> d           3.346  13.449  -2.207  0.00  0.00    -0.353 OA
ATOM     26  C21 <0> d           3.322  13.684  -3.616  0.00  0.00     0.210 C 
ENDBRANCH  20  25
ENDBRANCH  16  17
ENDBRANCH  13  16
ENDBRANCH  11  12
BRANCH   1  27
ATOM     27  N1  <0> d           3.140   4.017  -1.819  0.00  0.00    -0.290 NA
ATOM     28  H6  <0> d           3.992   3.727  -1.363  0.00  0.00     0.127 HD
BRANCH  27  29
ATOM     29  C2  <0> d           3.380   5.170  -2.698  0.00  0.00     0.088 C 
ATOM     30  C1  <0> d           4.476   4.823  -3.707  0.00  0.00     0.021 C 
ENDBRANCH  27  29
ENDBRANCH   1  27
TORSDOF 7
ENDMDL
MODEL ZINC24789028
REMARK  8 active torsions:
REMARK  status: ('A' for Active; 'I' for Inactive)
REMARK    1  A    between atoms: C2_2  and  C3_3 
REMARK    2  A    between atoms: C4_4  and  C5_8 
REMARK       I    between atoms: C5_8  and  N3_10 
REMARK    3  A    between atoms: N3_10  and  C6_11 
REMARK    4  A    between atoms: C6_11  and  C7_12 
REMARK    5  A    between atoms: C7_12  and  C8_13 
REMARK    6  A    between atoms: C8_13  and  C9_14 
REMARK    7  A    between atoms: C11_16  and  N6_25 
REMARK    8  A    between atoms: N4_17  and  C12_19 
ROOT
ATOM      1  C9  <0> d          -5.161  -1.425  -7.586  0.00  0.00     0.059 A 
ATOM      2  C10 <0> d          -6.064  -2.391  -8.040  0.00  0.00     0.079 A 
ATOM      3  C11 <0> d          -5.963  -2.451  -9.397  0.00  0.00     0.125 A 
ATOM      4  N4  <0> d          -5.021  -1.545  -9.777  0.00  0.00    -0.218 N 
ATOM      5  N5  <0> d          -4.542  -0.916  -8.621  0.00  0.00    -0.170 NA
ENDROOT
BRANCH   1   6
ATOM      6  C8  <0> d          -4.943  -1.031  -6.148  0.00  0.00     0.063 C 
BRANCH   6   7
ATOM      7  C7  <0> d          -3.459  -1.170  -5.801  0.00  0.00     0.026 C 
BRANCH   7   8
ATOM      8  C6  <0> d          -3.237  -0.770  -4.340  0.00  0.00     0.123 C 
BRANCH   8   9
ATOM      9  N3  <0> d          -1.817  -0.904  -4.008  0.00  0.00    -0.356 N 
ATOM     10  C5  <0> d          -1.384  -0.604  -2.767  0.00  0.00     0.262 C 
ATOM     11  O1  <0> d          -2.173  -0.223  -1.924  0.00  0.00    -0.267 OA
ATOM     12  H6  <0> d          -1.188  -1.208  -4.681  0.00  0.00     0.162 HD
BRANCH  10  13
ATOM     13  C4  <0> d           0.043  -0.738  -2.433  0.00  0.00     0.119 A 
ATOM     14  C3  <0> d           0.707  -0.490  -1.238  0.00  0.00     0.081 A 
ATOM     15  N2  <0> d           1.999  -0.708  -1.280  0.00  0.00    -0.146 NA
ATOM     16  N1  <0> d           2.590  -1.128  -2.341  0.00  0.00    -0.110 NA
ATOM     17  S1  <0> d           1.413  -1.266  -3.448  0.00  0.00     0.042 SA
BRANCH  14  18
ATOM     18  C2  <0> d           0.002  -0.004   0.002  0.00  0.00     0.058 C 
ATOM     19  C1  <0> d          -0.019   1.526   0.010  0.00  0.00     0.011 C 
ENDBRANCH  14  18
ENDBRANCH  10  13
ENDBRANCH   8   9
ENDBRANCH   7   8
ENDBRANCH   6   7
ENDBRANCH   1   6
BRANCH   4  20
ATOM     20  C12 <0> d          -4.608  -1.285 -11.090  0.00  0.00     0.060 A 
ATOM     21  C17 <0> d          -4.259   0.005 -11.467  0.00  0.00     0.031 A 
ATOM     22  C16 <0> d          -3.847   0.257 -12.761  0.00  0.00     0.002 A 
ATOM     23  C15 <0> d          -3.792  -0.771 -13.684  0.00  0.00     0.000 A 
ATOM     24  C14 <0> d          -4.143  -2.056 -13.313  0.00  0.00     0.002 A 
ATOM     25  C13 <0> d          -4.551  -2.316 -12.019  0.00  0.00     0.031 A 
ENDBRANCH   4  20
BRANCH   3  26
ATOM     26  N6  <0> d          -6.690  -3.286 -10.240  0.00  0.00    -0.384 N 
ATOM     27  H19 <0> d          -7.342  -3.901  -9.870  0.00  0.00     0.157 HD
ATOM     28  H20 <0> d          -6.544  -3.254 -11.199  0.00  0.00     0.157 HD
ENDBRANCH   3  26
TORSDOF 8
ENDMDL
MODEL ZINC06851970
REMARK  7 active torsions:
REMARK  status: ('A' for Active; 'I' for Inactive)
REMARK    1  A    between atoms: C2_2  and  O1_3 
REMARK    2  A    between atoms: O1_3  and  C3_4 
REMARK    3  A    between atoms: C3_4  and  C4_6 
REMARK    4  A    between atoms: C6_9  and  N2_11 
REMARK       I    between atoms: N2_11  and  C7_12 
REMARK    5  A    between atoms: C7_12  and  C8_14 
REMARK    6  A    between atoms: C8_14  and  C9_15 
REMARK    7  A    between atoms: C13_19  and  C15_21 
ROOT
ATOM      1  N2  <0> d          -0.111   7.182  -1.628  0.00  0.00    -0.305 N 
ATOM      2  C7  <0> d          -0.091   5.856  -1.389  0.00  0.00     0.227 C 
ATOM      3  O3  <0> d          -0.089   5.072  -2.314  0.00  0.00    -0.273 OA
ATOM      4  H6  <0> d          -0.113   7.809  -0.888  0.00  0.00     0.171 HD
ENDROOT
BRANCH   1   5
ATOM      5  C6  <0> d          -0.130   7.650  -2.931  0.00  0.00     0.174 A 
ATOM      6  N1  <0> d          -0.157   8.901  -3.361  0.00  0.00    -0.228 NA
ATOM      7  C5  <0> d          -0.167   9.187  -4.636  0.00  0.00     0.057 A 
ATOM      8  C4  <0> d          -0.161   8.130  -5.536  0.00  0.00     0.107 A 
ATOM      9  C16 <0> d          -0.190  10.616  -5.114  0.00  0.00     0.072 C 
ATOM     10  S1  <0> d          -0.132   6.742  -4.411  0.00  0.00    -0.044 SA
BRANCH   8  11
ATOM     11  C3  <0> d          -0.176   8.147  -6.997  0.00  0.00     0.302 C 
ATOM     12  O2  <0> d          -0.196   9.207  -7.593  0.00  0.00    -0.259 OA
BRANCH  11  13
ATOM     13  O1  <0> d          -0.167   6.986  -7.686  0.00  0.00    -0.317 OA
BRANCH  13  14
ATOM     14  C2  <0> d          -0.181   7.078  -9.112  0.00  0.00     0.174 C 
ATOM     15  C1  <0> d          -0.168   5.671  -9.713  0.00  0.00     0.034 C 
ENDBRANCH  13  14
ENDBRANCH  11  13
ENDBRANCH   8  11
ENDBRANCH   1   5
BRANCH   2  16
ATOM     16  C8  <0> d          -0.070   5.347   0.030  0.00  0.00     0.141 C 
BRANCH  16  17
ATOM     17  C9  <0> d          -0.050   3.840   0.022  0.00  0.00    -0.049 A 
ATOM     18  C14 <0> d          -1.238   3.133   0.030  0.00  0.00     0.023 A 
ATOM     19  C13 <0> d          -1.219   1.750   0.017  0.00  0.00     0.048 A 
ATOM     20  C12 <0> d          -0.013   1.076   0.008  0.00  0.00     0.016 A 
ATOM     21  C11 <0> d           1.175   1.783   0.000  0.00  0.00     0.001 A 
ATOM     22  C10 <0> d           1.157   3.165   0.008  0.00  0.00     0.007 A 
BRANCH  19  23
ATOM     23  C15 <0> d          -2.514   0.979   0.019  0.00  0.00     0.417 C 
ATOM     24  F1  <0> d          -2.239  -0.392   0.010  0.00  0.00    -0.166 F 
ATOM     25  F2  <0> d          -3.246   1.301   1.167  0.00  0.00    -0.166 F 
ATOM     26  F3  <0> d          -3.257   1.314  -1.118  0.00  0.00    -0.166 F 
ENDBRANCH  19  23
ENDBRANCH  16  17
ENDBRANCH   2  16
TORSDOF 7
ENDMDL
MODEL ZINC70636040
REMARK  6 active torsions:
REMARK  status: ('A' for Active; 'I' for Inactive)
REMARK    1  A    between atoms: C10_10  and  C11_11 
REMARK    2  A    between atoms: C11_11  and  C12_12 
REMARK    3  A    between atoms: C11_11  and  O2_26 
REMARK    4  A    between atoms: C12_12  and  N1_13 
REMARK       I    between atoms: N1_13  and  C13_14 
REMARK    5  A    between atoms: C13_14  and  C14_16 
REMARK    6  A    between atoms: C14_16  and  C19_21 
ROOT
ATOM      1  C12 <0> d           5.347   0.524   1.389  0.00  0.00     0.159 C 
ENDROOT
BRANCH   1   2
ATOM      2  C11 <0> d           4.960   0.161  -0.046  0.00  0.00     0.169 C 
BRANCH   2   3
ATOM      3  C10 <0> d           3.668  -0.615  -0.037  0.00  0.00    -0.017 A 
ATOM      4  C4  <0> d           2.438   0.064  -0.021  0.00  0.00    -0.017 A 
ATOM      5  C3  <0> d           2.378   1.468  -0.013  0.00  0.00     0.013 A 
ATOM      6  C5  <0> d           1.233  -0.683  -0.013  0.00  0.00    -0.025 A 
ATOM      7  C2  <0> d           1.169   2.091   0.002  0.00  0.00     0.001 A 
ATOM      8  C1  <0> d          -0.016   1.357   0.009  0.00  0.00     0.001 A 
ATOM      9  C6  <0> d           0.002  -0.004   0.002  0.00  0.00     0.012 A 
ATOM     10  C7  <0> d           1.292  -2.087  -0.021  0.00  0.00     0.012 A 
ATOM     11  C8  <0> d           2.502  -2.709  -0.036  0.00  0.00     0.002 A 
ATOM     12  C9  <0> d           3.687  -1.976  -0.043  0.00  0.00     0.011 A 
ENDBRANCH   2   3
BRANCH   2  13
ATOM     13  O2  <0> d           5.991  -0.639  -0.629  0.00  0.00    -0.389 OA
ATOM     14  H23 <0> d           6.159  -1.468  -0.160  0.00  0.00     0.210 HD
ENDBRANCH   2  13
ENDBRANCH   1   2
BRANCH   1  15
ATOM     15  N1  <0> d           6.537   1.378   1.373  0.00  0.00    -0.357 N 
ATOM     16  C13 <0> d           7.063   1.825   2.531  0.00  0.00     0.231 C 
ATOM     17  O1  <0> d           6.550   1.519   3.587  0.00  0.00    -0.272 OA
ATOM     18  H11 <0> d           6.947   1.622   0.528  0.00  0.00     0.162 HD
BRANCH  16  19
ATOM     19  C14 <0> d           8.287   2.703   2.514  0.00  0.00     0.074 C 
ATOM     20  C18 <0> d           8.688   3.077   3.952  0.00  0.00     0.025 C 
ATOM     21  C17 <0> d           8.608   4.614   4.046  0.00  0.00     0.002 C 
ATOM     22  C16 <0> d           7.617   5.013   2.924  0.00  0.00     0.002 C 
ATOM     23  C15 <0> d           7.977   4.027   1.784  0.00  0.00     0.025 C 
BRANCH  19  24
ATOM     24  C19 <0> d           9.425   1.990   1.830  0.00  0.00     0.000 A 
ATOM     25  S1  <0> d          11.034   1.562   2.474  0.00  0.00    -0.105 SA
ATOM     26  C22 <0> d          11.686   0.766   1.015  0.00  0.00     0.050 A 
ATOM     27  C21 <0> d          10.653   0.884   0.146  0.00  0.00     0.008 A 
ATOM     28  C20 <0> d           9.494   1.511   0.563  0.00  0.00     0.016 A 
ENDBRANCH  19  24
ENDBRANCH  16  19
ENDBRANCH   1  15
TORSDOF 6
ENDMDL
MODEL ZINC02800574
REMARK  2 active torsions:
REMARK  status: ('A' for Active; 'I' for Inactive)
REMARK    1  A    between atoms: C4_4  and  C6_8 
REMARK    2  A    between atoms: N5_14  and  C12_20 
ROOT
ATOM      1  C6  <0> d           3.421   8.525   1.623  0.00  0.00     0.204 A 
ATOM      2  N3  <0> d           2.407   8.010   0.921  0.00  0.00    -0.205 NA
ATOM      3  C7  <0> d           2.473   6.695   0.950  0.00  0.00     0.170 A 
ATOM      4  C8  <0> d           1.666   5.615   0.382  0.00  0.00     0.079 A 
ATOM      5  C9  <0> d           0.508   5.555  -0.413  0.00  0.00     0.158 A 
ATOM      6  N4  <0> d           0.221   4.301  -0.634  0.00  0.00    -0.177 NA
ATOM      7  N5  <0> d           1.162   3.486   0.009  0.00  0.00    -0.215 N 
ATOM      8  C10 <0> d           2.065   4.294   0.639  0.00  0.00     0.168 A 
ATOM      9  N6  <0> d           3.155   4.068   1.385  0.00  0.00    -0.221 NA
ATOM     10  C11 <0> d           3.869   5.033   1.886  0.00  0.00     0.239 A 
ATOM     11  N7  <0> d           3.568   6.344   1.696  0.00  0.00    -0.206 N 
ATOM     12  N8  <0> d           4.155   7.545   2.114  0.00  0.00    -0.142 NA
ENDROOT
BRANCH   1  13
ATOM     13  C4  <0> d           3.681   9.973   1.820  0.00  0.00     0.150 A 
ATOM     14  C3  <0> d           4.741  10.532   2.561  0.00  0.00     0.092 A 
ATOM     15  C2  <0> d           4.628  11.877   2.496  0.00  0.00     0.050 A 
ATOM     16 Cl1  <0> d           5.974   9.650   3.406  0.00  0.00    -0.080 Cl
ATOM     17  C1  <0> d           5.551  12.877   3.143  0.00  0.00     0.072 C 
ATOM     18  N2  <0> d           3.538  12.168   1.752  0.00  0.00    -0.276 N 
ATOM     19  N1  <0> d           2.958  10.962   1.338  0.00  0.00    -0.167 NA
ATOM     20  C5  <0> d           3.047  13.511   1.435  0.00  0.00     0.179 C 
ENDBRANCH   1  13
BRANCH   7  21
ATOM     21  C12 <0> d           1.177   2.086   0.002  0.00  0.00     0.060 A 
ATOM     22  C17 <0> d           2.387   1.404  -0.013  0.00  0.00     0.031 A 
ATOM     23  C16 <0> d           2.399   0.023  -0.021  0.00  0.00     0.002 A 
ATOM     24  C15 <0> d           1.208  -0.681  -0.014  0.00  0.00     0.000 A 
ATOM     25  C14 <0> d           0.002  -0.004   0.002  0.00  0.00     0.002 A 
ATOM     26  C13 <0> d          -0.017   1.377   0.010  0.00  0.00     0.031 A 
ENDBRANCH   7  21
TORSDOF 2
ENDMDL
MODEL ZINC70735451
REMARK  5 active torsions:
REMARK  status: ('A' for Active; 'I' for Inactive)
REMARK    1  A    between atoms: O1_2  and  C2_3 
REMARK    2  A    between atoms: C2_3  and  C3_5 
REMARK    3  A    between atoms: C3_5  and  C4_6 
REMARK    4  A    between atoms: C3_5  and  N2_17 
REMARK    5  A    between atoms: C4_6  and  C5_7 
ROOT
ATOM      1  C5  <0> d           1.774  -4.122  -0.209  0.00  0.00    -0.043 A 
ATOM      2  C6  <0> d           1.121  -4.787   0.790  0.00  0.00     0.008 A 
ATOM      3  C7  <0> d           1.099  -6.175   0.817  0.00  0.00     0.003 A 
ATOM      4  C8  <0> d           1.734  -6.907  -0.163  0.00  0.00     0.030 A 
ATOM      5  C9  <0> d           2.404  -6.251  -1.190  0.00  0.00     0.042 A 
ATOM      6  C10 <0> d           2.418  -4.844  -1.215  0.00  0.00    -0.002 A 
ATOM      7  C11 <0> d           3.187  -4.469  -2.405  0.00  0.00     0.031 A 
ATOM      8  C12 <0> d           3.567  -5.609  -3.002  0.00  0.00     0.089 A 
ATOM      9  N1  <0> d           3.115  -6.684  -2.286  0.00  0.00    -0.365 N 
ATOM     10  H2  <0> d           3.265  -7.613  -2.521  0.00  0.00     0.165 HD
ENDROOT
BRANCH   1  11
ATOM     11  C4  <0> d           1.792  -2.615  -0.229  0.00  0.00     0.082 C 
BRANCH  11  12
ATOM     12  C3  <0> d           0.657  -2.104  -1.120  0.00  0.00     0.286 C 
BRANCH  12  13
ATOM     13  C2  <0> d           0.598  -0.600  -1.043  0.00  0.00     0.289 C 
ATOM     14  O2  <0> d           1.088   0.070  -1.921  0.00  0.00    -0.263 OA
BRANCH  13  15
ATOM     15  O1  <0> d           0.002  -0.004   0.002  0.00  0.00    -0.325 OA
ATOM     16  C1  <0> d          -0.017   1.425   0.010  0.00  0.00     0.213 C 
ENDBRANCH  13  15
ENDBRANCH  12  13
BRANCH  12  17
ATOM     17  N2  <0> d           0.902  -2.514  -2.509  0.00  0.00    -0.066 N 
ATOM     18  H13 <0> d           1.779  -2.126  -2.824  0.00  0.00     0.275 HD
ATOM     19  H14 <0> d           0.942  -3.520  -2.560  0.00  0.00     0.275 HD
ATOM     20  H15 <0> d           0.154  -2.176  -3.096  0.00  0.00     0.275 HD
ENDBRANCH  12  17
ENDBRANCH  11  12
ENDBRANCH   1  11
TORSDOF 5
ENDMDL
MODEL ZINC71439468
REMARK  3 active torsions:
REMARK  status: ('A' for Active; 'I' for Inactive)
REMARK    1  A    between atoms: C6_6  and  C7_7 
REMARK    2  A    between atoms: C7_7  and  C8_9 
REMARK    3  A    between atoms: C8_9  and  N1_10 
ROOT
ATOM      1  C7  <0> d          -1.258  -0.759   0.008  0.00  0.00     0.187 C 
ATOM      2  O1  <0> d          -1.238  -1.972   0.002  0.00  0.00    -0.290 OA
ENDROOT
BRANCH   1   3
ATOM      3  C6  <0> d           0.002  -0.004   0.002  0.00  0.00     0.014 A 
ATOM      4  C1  <0> d          -0.017   1.395   0.010  0.00  0.00     0.018 A 
ATOM      5  C2  <0> d           1.165   2.103   0.002  0.00  0.00     0.040 A 
ATOM      6  C3  <0> d           2.383   1.433  -0.012  0.00  0.00     0.095 A 
ATOM      7  O2  <0> d           3.537   2.146  -0.023  0.00  0.00    -0.347 OA
ATOM      8  C4  <0> d           2.407   0.036  -0.017  0.00  0.00     0.062 A 
ATOM      9  C15 <0> d           4.733   1.487   0.401  0.00  0.00     0.195 C 
ATOM     10  C14 <0> d           4.846   0.145  -0.337  0.00  0.00     0.146 C 
ATOM     11  N3  <0> d           3.639  -0.638  -0.024  0.00  0.00    -0.386 N 
ATOM     12  H17 <0> d           3.693  -1.587   0.172  0.00  0.00     0.159 HD
ATOM     13  C5  <0> d           1.228  -0.681  -0.012  0.00  0.00     0.047 A 
ENDBRANCH   1   3
BRANCH   1  14
ATOM     14  C8  <0> d          -2.575  -0.027   0.023  0.00  0.00     0.356 C 
BRANCH  14  15
ATOM     15  N1  <0> d          -3.676  -1.000   0.026  0.00  0.00     0.097 N 
ATOM     16  C13 <0> d          -4.901  -0.369   0.267  0.00  0.00     0.300 C 
ATOM     17  C12 <0> d          -6.053  -1.372   0.459  0.00  0.00     0.262 C 
ATOM     18  N2  <0> d          -6.504  -1.808  -0.843  0.00  0.00    -0.073 N 
ATOM     19  C11 <0> d          -5.864  -3.076  -1.262  0.00  0.00     0.234 C 
ATOM     20  H12 <0> d          -6.288  -1.093  -1.521  0.00  0.00     0.277 HD
ATOM     21  H22 <0> d          -7.504  -1.940  -0.816  0.00  0.00     0.277 HD
ATOM     22  C10 <0> d          -4.365  -3.123  -0.925  0.00  0.00     0.057 C 
ATOM     23  C9  <0> d          -3.665  -1.819  -1.209  0.00  0.00     0.274 C 
ENDBRANCH  14  15
ENDBRANCH   1  14
TORSDOF 3
ENDMDL
MODEL ZINC06942297
REMARK  4 active torsions:
REMARK  status: ('A' for Active; 'I' for Inactive)
REMARK    1  A    between atoms: C5_5  and  C7_7 
REMARK    2  A    between atoms: C7_7  and  O1_8 
REMARK    3  A    between atoms: O1_8  and  C8_9 
REMARK    4  A    between atoms: C8_9  and  C9_11 
ROOT
ATOM      1  C1  <0> d          -0.055   4.197   0.025  0.00  0.00     0.001 A 
ATOM      2  C2  <0> d          -1.246   3.492   0.032  0.00  0.00     0.002 A 
ATOM      3  C3  <0> d          -1.234   2.113   0.019  0.00  0.00     0.023 A 
ATOM      4  C4  <0> d          -0.017   1.428   0.010  0.00  0.00     0.053 A 
ATOM      5  C5  <0> d           1.180   2.145   0.002  0.00  0.00    -0.013 A 
ATOM      6  C6  <0> d           1.154   3.525   0.010  0.00  0.00     0.011 A 
ATOM      7  C19 <0> d           0.002  -0.004   0.002  0.00  0.00     0.100 C 
ATOM      8  N1  <0> d           0.018  -1.140  -0.004  0.00  0.00    -0.191 NA
ENDROOT
BRANCH   5   9
ATOM      9  C7  <0> d           2.498   1.415  -0.015  0.00  0.00     0.218 C 
BRANCH   9  10
ATOM     10  O1  <0> d           3.585   2.378  -0.020  0.00  0.00    -0.316 OA
BRANCH  10  11
ATOM     11  C8  <0> d           4.834   1.887  -0.035  0.00  0.00     0.268 C 
ATOM     12  O2  <0> d           5.013   0.692  -0.043  0.00  0.00    -0.264 OA
BRANCH  11  13
ATOM     13  C9  <0> d           6.013   2.825  -0.041  0.00  0.00     0.049 C 
ATOM     14  C14 <0> d           7.311   2.015  -0.058  0.00  0.00     0.024 C 
ATOM     15  C13 <0> d           8.507   2.968  -0.065  0.00  0.00    -0.013 C 
ATOM     16  C12 <0> d           8.445   3.857  -1.308  0.00  0.00     0.009 C 
ATOM     17  C15 <0> d           8.469   3.843   1.190  0.00  0.00     0.009 C 
ATOM     18  C11 <0> d           7.147   4.668  -1.291  0.00  0.00    -0.013 C 
ATOM     19  C10 <0> d           5.950   3.715  -1.285  0.00  0.00     0.024 C 
ATOM     20  C17 <0> d           7.109   5.542  -0.036  0.00  0.00     0.009 C 
ATOM     21  C16 <0> d           7.172   4.653   1.208  0.00  0.00    -0.013 C 
ATOM     22  C18 <0> d           5.975   3.700   1.214  0.00  0.00     0.024 C 
ENDBRANCH  11  13
ENDBRANCH  10  11
ENDBRANCH   9  10
ENDBRANCH   5   9
TORSDOF 4
ENDMDL
MODEL ZINC06950316
REMARK  5 active torsions:
REMARK  status: ('A' for Active; 'I' for Inactive)
REMARK    1  A    between atoms: C2_2  and  O1_3 
REMARK    2  A    between atoms: O1_3  and  C3_4 
REMARK    3  A    between atoms: C7_8  and  C9_10 
REMARK       I    between atoms: C9_10  and  N1_12 
REMARK    4  A    between atoms: N1_12  and  C10_13 
REMARK    5  A    between atoms: C11_14  and  C19_23 
REMARK       I    between atoms: C19_23  and  N2_25 
ROOT
ATOM      1  C10 <0> d           1.081   7.398   0.031  0.00  0.00     0.093 A 
ATOM      2  C11 <0> d           2.158   8.271   0.031  0.00  0.00     0.073 A 
ATOM      3  C12 <0> d           1.872   9.699   0.032  0.00  0.00    -0.026 A 
ATOM      4  C13 <0> d           0.560  10.017   0.051  0.00  0.00    -0.008 A 
ATOM      5  S1  <0> d          -0.287   8.460   0.050  0.00  0.00    -0.075 SA
ATOM      6  C14 <0> d          -0.051  11.383   0.082  0.00  0.00     0.046 C 
ATOM      7  C15 <0> d           0.604  12.255  -0.999  0.00  0.00     0.005 C 
ATOM      8  C16 <0> d           1.820  12.945  -0.390  0.00  0.00     0.001 C 
ATOM      9  C17 <0> d           2.468  12.041   0.658  0.00  0.00     0.005 C 
ATOM     10  C18 <0> d           2.971  10.755   0.013  0.00  0.00     0.041 C 
ENDROOT
BRANCH   1  11
ATOM     11  N1  <0> d           1.096   6.013   0.023  0.00  0.00    -0.316 N 
ATOM     12  C9  <0> d          -0.064   5.326   0.031  0.00  0.00     0.256 C 
ATOM     13  O2  <0> d          -1.123   5.923   0.044  0.00  0.00    -0.267 OA
ATOM     14  H10 <0> d           1.941   5.536   0.013  0.00  0.00     0.169 HD
BRANCH  12  15
ATOM     15  C7  <0> d          -0.049   3.848   0.023  0.00  0.00     0.035 A 
ATOM     16  C6  <0> d           1.166   3.161   0.007  0.00  0.00     0.017 A 
ATOM     17  C5  <0> d           1.177   1.781   0.000  0.00  0.00     0.004 A 
ATOM     18  C4  <0> d          -0.013   1.076   0.008  0.00  0.00     0.037 A 
ATOM     19  C3  <0> d          -1.226   1.751   0.017  0.00  0.00     0.069 A 
ATOM     20  C8  <0> d          -1.248   3.135   0.031  0.00  0.00     0.053 A 
BRANCH  19  21
ATOM     21  O1  <0> d          -2.392   1.053   0.019  0.00  0.00    -0.351 OA
BRANCH  21  22
ATOM     22  C2  <0> d          -2.294  -0.373   0.010  0.00  0.00     0.171 C 
ATOM     23  C1  <0> d          -3.699  -0.980   0.013  0.00  0.00     0.034 C 
ENDBRANCH  21  22
ENDBRANCH  19  21
ENDBRANCH  12  15
ENDBRANCH   1  11
BRANCH   2  24
ATOM     24  C19 <0> d           3.537   7.774   0.026  0.00  0.00     0.252 C 
ATOM     25  O3  <0> d           4.107   7.571  -1.030  0.00  0.00    -0.268 OA
ATOM     26  N2  <0> d           4.174   7.541   1.191  0.00  0.00    -0.366 N 
ATOM     27  H21 <0> d           3.720   7.703   2.033  0.00  0.00     0.159 HD
ATOM     28  H22 <0> d           5.086   7.212   1.188  0.00  0.00     0.159 HD
ENDBRANCH   2  24
TORSDOF 5
ENDMDL
MODEL ZINC71428120
REMARK  4 active torsions:
REMARK  status: ('A' for Active; 'I' for Inactive)
REMARK    1  A    between atoms: C2_2  and  N1_3 
REMARK    2  A    between atoms: N1_3  and  C3_4 
REMARK    3  A    between atoms: C3_4  and  C4_5 
REMARK    4  A    between atoms: C4_5  and  C5_6 
ROOT
ATOM      1  C5  <0> d          -2.771  -4.018   0.007  0.00  0.00    -0.056 A 
ATOM      2  C6  <0> d          -2.767  -4.705  -1.194  0.00  0.00     0.009 A 
ATOM      3  C7  <0> d          -2.749  -6.083  -1.205  0.00  0.00     0.030 A 
ATOM      4  C8  <0> d          -2.734  -6.796  -0.004  0.00  0.00     0.034 A 
ATOM      5  C9  <0> d          -2.737  -6.099   1.193  0.00  0.00    -0.029 A 
ATOM      6  C10 <0> d          -2.750  -4.717   1.199  0.00  0.00     0.016 A 
ATOM      7  C11 <0> d          -2.718  -7.095   2.330  0.00  0.00     0.065 A 
ATOM      8  C12 <0> d          -2.703  -8.469   1.640  0.00  0.00     0.082 A 
ATOM      9  N2  <0> d          -2.714  -8.177   0.204  0.00  0.00    -0.385 N 
ATOM     10  C13 <0> d          -1.435  -9.239   2.017  0.00  0.00     0.032 C 
ATOM     11  H17 <0> d          -2.709  -8.845  -0.499  0.00  0.00     0.160 HD
ENDROOT
BRANCH   1  12
ATOM     12  C4  <0> d          -2.792  -2.511   0.015  0.00  0.00     0.066 C 
BRANCH  12  13
ATOM     13  C3  <0> d          -1.356  -1.981   0.004  0.00  0.00     0.237 C 
BRANCH  13  14
ATOM     14  N1  <0> d          -1.376  -0.512   0.012  0.00  0.00    -0.075 N 
ATOM     15  H7  <0> d          -1.848  -0.187   0.843  0.00  0.00     0.277 HD
ATOM     16  H21 <0> d          -1.864  -0.178  -0.805  0.00  0.00     0.277 HD
BRANCH  14  17
ATOM     17  C2  <0> d           0.002  -0.004   0.002  0.00  0.00     0.228 C 
ATOM     18  C1  <0> d          -0.019   1.526   0.010  0.00  0.00     0.034 C 
ENDBRANCH  14  17
ENDBRANCH  13  14
ENDBRANCH  12  13
ENDBRANCH   1  12
TORSDOF 4
ENDMDL
MODEL ZINC71439598
REMARK  4 active torsions:
REMARK  status: ('A' for Active; 'I' for Inactive)
REMARK    1  A    between atoms: C2_2  and  C3_3 
REMARK    2  A    between atoms: C3_3  and  C4_4 
REMARK    3  A    between atoms: C3_3  and  N2_16 
REMARK    4  A    between atoms: C4_4  and  C5_6 
ROOT
ATOM      1  C4  <0> d           0.579  -2.061  -0.950  0.00  0.00     0.190 C 
ATOM      2  O1  <0> d          -0.261  -2.670  -1.579  0.00  0.00    -0.290 OA
ENDROOT
BRANCH   1   3
ATOM      3  C3  <0> d           0.773  -0.585  -1.185  0.00  0.00     0.262 C 
BRANCH   3   4
ATOM      4  C2  <0> d           0.166   0.201  -0.021  0.00  0.00     0.037 C 
ATOM      5  C1  <0> d          -1.344  -0.041   0.025  0.00  0.00     0.007 C 
ENDBRANCH   3   4
BRANCH   3   6
ATOM      6  N2  <0> d           0.109  -0.197  -2.437  0.00  0.00    -0.060 N 
ATOM      7  C18 <0> d           0.191   1.189  -2.576  0.00  0.00     0.236 C 
ATOM      8  C17 <0> d          -0.567   1.691  -3.823  0.00  0.00     0.028 C 
ATOM      9  C16 <0> d           0.276   1.438  -5.046  0.00  0.00     0.002 C 
ATOM     10  C15 <0> d          -0.051   0.088  -5.716  0.00  0.00     0.002 C 
ATOM     11  C14 <0> d          -0.266  -1.029  -4.677  0.00  0.00     0.028 C 
ATOM     12  C13 <0> d           0.734  -0.935  -3.552  0.00  0.00     0.236 C 
ATOM     13  H27 <0> d          -0.863  -0.461  -2.382  0.00  0.00     0.280 HD
ENDBRANCH   3   6
ENDBRANCH   1   3
BRANCH   1  14
ATOM     14  C5  <0> d           1.406  -2.761   0.041  0.00  0.00     0.014 A 
ATOM     15  C10 <0> d           1.228  -4.133   0.263  0.00  0.00     0.047 A 
ATOM     16  C9  <0> d           2.013  -4.784   1.193  0.00  0.00     0.062 A 
ATOM     17  C8  <0> d           2.977  -4.081   1.919  0.00  0.00     0.095 A 
ATOM     18  N1  <0> d           1.838  -6.159   1.420  0.00  0.00    -0.386 N 
ATOM     19  C7  <0> d           3.147  -2.718   1.701  0.00  0.00     0.040 A 
ATOM     20  O2  <0> d           3.754  -4.714   2.834  0.00  0.00    -0.347 OA
ATOM     21  C6  <0> d           2.372  -2.060   0.773  0.00  0.00     0.018 A 
ATOM     22  C12 <0> d           3.288  -5.961   3.356  0.00  0.00     0.195 C 
ATOM     23  C11 <0> d           2.880  -6.865   2.184  0.00  0.00     0.146 C 
ATOM     24  H10 <0> d           1.057  -6.627   1.085  0.00  0.00     0.159 HD
ENDBRANCH   1  14
TORSDOF 4
ENDMDL
MODEL ZINC71463669
REMARK  2 active torsions:
REMARK  status: ('A' for Active; 'I' for Inactive)
REMARK    1  A    between atoms: C5_5  and  O1_10 
REMARK    2  A    between atoms: O1_10  and  C9_11 
ROOT
ATOM      1  C1  <0> d          -0.018   1.503   0.010  0.00  0.00     0.048 C 
ATOM      2  C2  <0> d           0.002  -0.004   0.002  0.00  0.00    -0.060 A 
ATOM      3  C3  <0> d           0.006  -0.687  -1.203  0.00  0.00     0.016 A 
ATOM      4  C4  <0> d           0.024  -2.068  -1.224  0.00  0.00    -0.026 A 
ATOM      5  C5  <0> d           0.040  -2.780  -0.035  0.00  0.00     0.096 A 
ATOM      6  C6  <0> d           0.036  -2.094   1.187  0.00  0.00     0.079 A 
ATOM      7  C7  <0> d           0.023  -0.696   1.194  0.00  0.00     0.032 A 
ATOM      8  C8  <0> d           0.052  -2.819   2.421  0.00  0.00     0.102 C 
ATOM      9  N1  <0> d           0.064  -3.395   3.401  0.00  0.00    -0.191 NA
ATOM     10  C12 <0> d           0.028  -2.801  -2.541  0.00  0.00     0.051 C 
ENDROOT
BRANCH   5  11
ATOM     11  O1  <0> d           0.057  -4.137  -0.054  0.00  0.00    -0.345 OA
BRANCH  11  12
ATOM     12  C9  <0> d           1.339  -4.769  -0.069  0.00  0.00     0.120 C 
ATOM     13  C10 <0> d           1.803  -5.015   1.368  0.00  0.00     0.040 C 
ATOM     14  C11 <0> d           1.239  -6.105  -0.808  0.00  0.00     0.040 C 
ENDBRANCH  11  12
ENDBRANCH   5  11
TORSDOF 2
ENDMDL
MODEL ZINC71518773
REMARK  7 active torsions:
REMARK  status: ('A' for Active; 'I' for Inactive)
REMARK    1  A    between atoms: C2_2  and  O1_3 
REMARK    2  A    between atoms: O1_3  and  C3_4 
REMARK    3  A    between atoms: C6_7  and  C9_11 
REMARK    4  A    between atoms: C9_11  and  C10_12 
REMARK    5  A    between atoms: C9_11  and  N1_15 
REMARK    6  A    between atoms: C10_12  and  C11_13 
REMARK    7  A    between atoms: C11_13  and  O2_14 
ROOT
ATOM      1  C3  <0> d           0.802  -1.825   1.306  0.00  0.00     0.107 A 
ATOM      2  C4  <0> d           0.260  -2.673   0.352  0.00  0.00     0.040 A 
ATOM      3  C5  <0> d           0.372  -4.042   0.502  0.00  0.00     0.012 A 
ATOM      4  C6  <0> d           1.023  -4.568   1.603  0.00  0.00    -0.025 A 
ATOM      5  C7  <0> d           1.564  -3.726   2.557  0.00  0.00     0.054 A 
ATOM      6  C8  <0> d           1.461  -2.354   2.408  0.00  0.00     0.150 A 
ATOM      7  F1  <0> d           1.996  -1.531   3.336  0.00  0.00    -0.203 F 
ENDROOT
BRANCH   4   8
ATOM      8  C9  <0> d           1.142  -6.061   1.764  0.00  0.00     0.218 C 
BRANCH   8   9
ATOM      9  C10 <0> d           0.080  -6.555   2.748  0.00  0.00     0.063 C 
BRANCH   9  10
ATOM     10  C11 <0> d           0.119  -8.083   2.817  0.00  0.00     0.166 C 
BRANCH  10  11
ATOM     11  O2  <0> d          -0.873  -8.544   3.737  0.00  0.00    -0.401 OA
ATOM     12  H14 <0> d          -0.905  -9.505   3.831  0.00  0.00     0.209 HD
ENDBRANCH  10  11
ENDBRANCH   9  10
ENDBRANCH   8   9
BRANCH   8  13
ATOM     13  N1  <0> d           2.478  -6.394   2.276  0.00  0.00    -0.071 N 
ATOM     14  H15 <0> d           2.615  -5.947   3.171  0.00  0.00     0.275 HD
ATOM     15  H16 <0> d           2.558  -7.394   2.384  0.00  0.00     0.275 HD
ATOM     16  H17 <0> d           3.178  -6.068   1.627  0.00  0.00     0.275 HD
ENDBRANCH   8  13
ENDBRANCH   4   8
BRANCH   1  17
ATOM     17  O1  <0> d           0.693  -0.477   1.160  0.00  0.00    -0.348 OA
BRANCH  17  18
ATOM     18  C2  <0> d           0.002  -0.004   0.002  0.00  0.00     0.171 C 
ATOM     19  C1  <0> d          -0.019   1.526   0.010  0.00  0.00     0.034 C 
ENDBRANCH  17  18
ENDBRANCH   1  17
TORSDOF 7
ENDMDL
MODEL ZINC71531360
REMARK  4 active torsions:
REMARK  status: ('A' for Active; 'I' for Inactive)
REMARK    1  A    between atoms: C2_2  and  C3_3 
REMARK    2  A    between atoms: C2_2  and  C8_10 
REMARK    3  A    between atoms: C2_2  and  O1_16 
REMARK    4  A    between atoms: C3_3  and  N1_4 
ROOT
ATOM      1  C1  <0> d           0.043   1.572   0.051  0.00  0.00     0.053 C 
ATOM      2  C2  <0> d           0.041   0.043  -0.000  0.00  0.00     0.109 C 
ENDROOT
BRANCH   2   3
ATOM      3  C3  <0> d           0.742  -0.511   1.242  0.00  0.00     0.314 C 
BRANCH   3   4
ATOM      4  N1  <0> d           0.126   0.060   2.447  0.00  0.00     0.095 N 
ATOM      5  C7  <0> d           1.003  -0.106   3.615  0.00  0.00     0.300 C 
ATOM      6  C6  <0> d           0.353   0.553   4.834  0.00  0.00     0.262 C 
ATOM      7  N2  <0> d          -0.953  -0.068   5.088  0.00  0.00    -0.072 N 
ATOM      8  C5  <0> d          -1.825   0.127   3.923  0.00  0.00     0.262 C 
ATOM      9  H10 <0> d          -1.376   0.358   5.900  0.00  0.00     0.277 HD
ATOM     10  H22 <0> d          -0.829  -1.056   5.254  0.00  0.00     0.277 HD
ATOM     11  C4  <0> d          -1.194  -0.536   2.696  0.00  0.00     0.300 C 
ENDBRANCH   3   4
ENDBRANCH   2   3
BRANCH   2  12
ATOM     12  C8  <0> d           0.769  -0.419  -1.236  0.00  0.00    -0.006 A 
ATOM     13  C11 <0> d           0.221  -0.643  -2.448  0.00  0.00     0.100 A 
ATOM     14  N3  <0> d           1.211  -1.047  -3.295  0.00  0.00    -0.370 N 
ATOM     15  C10 <0> d           2.388  -1.084  -2.607  0.00  0.00     0.090 A 
ATOM     16  C12 <0> d           1.038  -1.389  -4.709  0.00  0.00     0.154 C 
ATOM     17  C9  <0> d           2.145  -0.702  -1.337  0.00  0.00     0.029 A 
ENDBRANCH   2  12
BRANCH   2  18
ATOM     18  O1  <0> d          -1.307  -0.430  -0.037  0.00  0.00    -0.384 OA
ATOM     19  H21 <0> d          -1.385  -1.393  -0.071  0.00  0.00     0.211 HD
ENDBRANCH   2  18
TORSDOF 4
ENDMDL
MODEL ZINC71563547
REMARK  3 active torsions:
REMARK  status: ('A' for Active; 'I' for Inactive)
REMARK    1  A    between atoms: N1_4  and  C7_9 
REMARK    2  A    between atoms: C10_12  and  O1_15 
REMARK    3  A    between atoms: O1_15  and  C13_16 
ROOT
ATOM      1  C1  <0> d          -0.376   1.374   0.681  0.00  0.00     0.041 C 
ATOM      2  C2  <0> d          -0.530  -0.146   0.770  0.00  0.00     0.200 C 
ATOM      3  C3  <0> d          -1.964  -0.537   0.398  0.00  0.00     0.155 C 
ATOM      4  N1  <0> d          -2.124  -1.984   0.615  0.00  0.00    -0.377 N 
ATOM      5  C4  <0> d          -1.705  -2.541   1.910  0.00  0.00     0.155 C 
ATOM      6  C5  <0> d          -0.283  -2.055   2.211  0.00  0.00     0.200 C 
ATOM      7  N2  <0> d          -0.242  -0.589   2.140  0.00  0.00    -0.064 N 
ATOM      8  C6  <0> d           0.126  -2.509   3.614  0.00  0.00     0.041 C 
ATOM      9  H10 <0> d           0.674  -0.265   2.411  0.00  0.00     0.278 HD
ATOM     10  H25 <0> d          -0.932  -0.203   2.768  0.00  0.00     0.278 HD
ENDROOT
BRANCH   4  11
ATOM     11  C7  <0> d          -2.660  -2.806  -0.383  0.00  0.00     0.030 A 
ATOM     12  C12 <0> d          -3.162  -2.246  -1.550  0.00  0.00     0.032 A 
ATOM     13  C11 <0> d          -3.686  -3.058  -2.535  0.00  0.00     0.039 A 
ATOM     14  C10 <0> d          -3.721  -4.433  -2.355  0.00  0.00     0.069 A 
ATOM     15  C9  <0> d          -3.224  -4.993  -1.188  0.00  0.00     0.039 A 
ATOM     16  C8  <0> d          -2.695  -4.183  -0.203  0.00  0.00     0.032 A 
BRANCH  14  17
ATOM     17  O1  <0> d          -4.242  -5.232  -3.324  0.00  0.00    -0.347 OA
BRANCH  17  18
ATOM     18  C13 <0> d          -4.143  -6.644  -3.124  0.00  0.00     0.120 C 
ATOM     19  C14 <0> d          -5.314  -7.120  -2.263  0.00  0.00     0.040 C 
ATOM     20  C15 <0> d          -4.183  -7.355  -4.478  0.00  0.00     0.040 C 
ENDBRANCH  17  18
ENDBRANCH  14  17
ENDBRANCH   4  11
TORSDOF 3
ENDMDL
MODEL ZINC58235322
REMARK  0 active torsions:
REMARK  status: ('A' for Active; 'I' for Inactive)
ROOT
ATOM      1  C1  <0> d          -0.019   1.526   0.010  0.00  0.00     0.057 C 
ATOM      2  C2  <0> d           0.002  -0.004   0.002  0.00  0.00     0.141 C 
ATOM      3  C3  <0> d          -1.413  -0.525   0.009  0.00  0.00     0.256 C 
ATOM      4  O1  <0> d          -2.306   0.131  -0.484  0.00  0.00    -0.270 OA
ATOM      5  N1  <0> d          -1.681  -1.726   0.565  0.00  0.00    -0.322 N 
ATOM      6  C4  <0> d          -0.637  -2.449   1.160  0.00  0.00     0.071 A 
ATOM      7  C5  <0> d          -0.785  -3.795   1.452  0.00  0.00     0.074 A 
ATOM      8  C6  <0> d           0.258  -4.490   2.040  0.00  0.00     0.118 A 
ATOM      9  C7  <0> d           1.446  -3.842   2.335  0.00  0.00     0.045 A 
ATOM     10  C8  <0> d           1.598  -2.499   2.044  0.00  0.00     0.042 A 
ATOM     11  C9  <0> d           0.560  -1.798   1.456  0.00  0.00     0.097 A 
ATOM     12  O2  <0> d           0.694  -0.477   1.161  0.00  0.00    -0.329 OA
ATOM     13  F1  <0> d           0.117  -5.802   2.327  0.00  0.00    -0.206 F 
ATOM     14  C10 <0> d           0.720  -0.497  -1.256  0.00  0.00     0.057 C 
ATOM     15  H4  <0> d          -2.583  -2.083   0.554  0.00  0.00     0.169 HD
ENDROOT
TORSDOF 0
ENDMDL
MODEL ZINC71629627
REMARK  7 active torsions:
REMARK  status: ('A' for Active; 'I' for Inactive)
REMARK    1  A    between atoms: C2_2  and  C3_3 
REMARK    2  A    between atoms: C5_5  and  C10_11 
REMARK    3  A    between atoms: C8_8  and  O1_9 
REMARK    4  A    between atoms: C10_11  and  C11_12 
REMARK    5  A    between atoms: C11_12  and  C12_13 
REMARK    6  A    between atoms: C11_12  and  O2_20 
REMARK    7  A    between atoms: C12_13  and  N1_14 
ROOT
ATOM      1  C11 <0> d          -3.895  -3.480  -2.529  0.00  0.00     0.150 C 
ENDROOT
BRANCH   1   2
ATOM      2  C10 <0> d          -4.217  -2.001  -2.303  0.00  0.00     0.072 C 
BRANCH   2   3
ATOM      3  C5  <0> d          -3.809  -1.605  -0.908  0.00  0.00    -0.055 A 
ATOM      4  C4  <0> d          -2.534  -1.126  -0.671  0.00  0.00     0.017 A 
ATOM      5  C3  <0> d          -2.158  -0.761   0.607  0.00  0.00    -0.025 A 
ATOM      6  C8  <0> d          -3.059  -0.882   1.655  0.00  0.00     0.074 A 
ATOM      7  C7  <0> d          -4.340  -1.359   1.414  0.00  0.00     0.038 A 
ATOM      8  C6  <0> d          -4.711  -1.722   0.134  0.00  0.00     0.010 A 
BRANCH   5   9
ATOM      9  C2  <0> d          -0.768  -0.238   0.865  0.00  0.00     0.037 C 
ATOM     10  C1  <0> d          -0.807   1.288   0.957  0.00  0.00     0.010 C 
ENDBRANCH   5   9
BRANCH   6  11
ATOM     11  O1  <0> d          -2.689  -0.530   2.915  0.00  0.00    -0.355 OA
ATOM     12  C9  <0> d          -3.669  -0.681   3.944  0.00  0.00     0.210 C 
ENDBRANCH   6  11
ENDBRANCH   2   3
ENDBRANCH   1   2
BRANCH   1  13
ATOM     13  C12 <0> d          -4.193  -3.851  -3.983  0.00  0.00     0.304 C 
BRANCH  13  14
ATOM     14  N1  <0> d          -3.822  -5.253  -4.216  0.00  0.00     0.094 N 
ATOM     15  C16 <0> d          -2.364  -5.401  -4.327  0.00  0.00     0.300 C 
ATOM     16  C15 <0> d          -2.016  -6.880  -4.510  0.00  0.00     0.262 C 
ATOM     17  N2  <0> d          -2.671  -7.391  -5.721  0.00  0.00    -0.072 N 
ATOM     18  C14 <0> d          -4.127  -7.259  -5.585  0.00  0.00     0.262 C 
ATOM     19  H21 <0> d          -2.431  -8.363  -5.848  0.00  0.00     0.277 HD
ATOM     20  H27 <0> d          -2.358  -6.861  -6.521  0.00  0.00     0.277 HD
ATOM     21  C13 <0> d          -4.492  -5.784  -5.411  0.00  0.00     0.300 C 
ENDBRANCH  13  14
ENDBRANCH   1  13
BRANCH   1  22
ATOM     22  O2  <0> d          -4.698  -4.280  -1.659  0.00  0.00    -0.394 OA
ATOM     23  H26 <0> d          -5.650  -4.172  -1.792  0.00  0.00     0.210 HD
ENDBRANCH   1  22
TORSDOF 7
ENDMDL
MODEL ZINC71647922
REMARK  5 active torsions:
REMARK  status: ('A' for Active; 'I' for Inactive)
REMARK    1  A    between atoms: C2_2  and  C3_3 
REMARK    2  A    between atoms: C3_3  and  N1_5 
REMARK    3  A    between atoms: C7_8  and  C10_11 
REMARK    4  A    between atoms: C7_8  and  C17_19 
REMARK    5  A    between atoms: C14_15  and  O1_17 
ROOT
ATOM      1  N1  <0> d           2.273  -0.152   1.132  0.00  0.00    -0.067 N 
ATOM      2  C5  <0> d           2.992  -0.869   2.192  0.00  0.00     0.237 C 
ATOM      3  C6  <0> d           4.498  -0.656   2.025  0.00  0.00     0.053 C 
ATOM      4  C7  <0> d           4.810   0.841   2.116  0.00  0.00     0.078 C 
ATOM      5  C8  <0> d           3.997   1.587   1.054  0.00  0.00     0.053 C 
ATOM      6  C9  <0> d           2.509   1.291   1.257  0.00  0.00     0.237 C 
ATOM      7  H25 <0> d           2.601  -0.469   0.232  0.00  0.00     0.280 HD
ENDROOT
BRANCH   4   8
ATOM      8  C10 <0> d           6.280   1.065   1.875  0.00  0.00    -0.036 A 
ATOM      9  C15 <0> d           6.798   2.345   1.908  0.00  0.00     0.045 A 
ATOM     10  C14 <0> d           8.153   2.551   1.692  0.00  0.00     0.068 A 
ATOM     11  C13 <0> d           8.982   1.470   1.431  0.00  0.00     0.037 A 
ATOM     12  C12 <0> d           8.459   0.192   1.393  0.00  0.00     0.003 A 
ATOM     13  C11 <0> d           7.110  -0.010   1.615  0.00  0.00     0.009 A 
BRANCH  10  14
ATOM     14  O1  <0> d           8.665   3.809   1.729  0.00  0.00    -0.356 OA
ATOM     15  C16 <0> d          10.068   3.945   1.492  0.00  0.00     0.210 C 
ENDBRANCH  10  14
ENDBRANCH   4   8
BRANCH   4  16
ATOM     16  C17 <0> d           4.439   1.351   3.485  0.00  0.00     0.186 C 
ATOM     17  O2  <0> d           4.435   0.590   4.438  0.00  0.00    -0.647 OA
ATOM     18  O3  <0> d           4.142   2.523   3.639  0.00  0.00    -0.647 OA
ENDBRANCH   4  16
BRANCH   1  19
ATOM     19  C3  <0> d           0.834  -0.423   1.250  0.00  0.00     0.183 C 
ATOM     20  C4  <0> d           0.362  -0.069   2.661  0.00  0.00     0.040 C 
BRANCH  19  21
ATOM     21  C2  <0> d           0.570  -1.906   0.981  0.00  0.00     0.028 C 
ATOM     22  C1  <0> d           0.908  -2.228  -0.477  0.00  0.00     0.007 C 
ENDBRANCH  19  21
ENDBRANCH   1  19
TORSDOF 5
ENDMDL
MODEL ZINC71689387
REMARK  7 active torsions:
REMARK  status: ('A' for Active; 'I' for Inactive)
REMARK    1  A    between atoms: C2_2  and  C3_3 
REMARK    2  A    between atoms: C2_2  and  N1_14 
REMARK    3  A    between atoms: C3_3  and  C4_4 
REMARK    4  A    between atoms: C3_3  and  O1_13 
REMARK    5  A    between atoms: C7_7  and  C10_10 
REMARK    6  A    between atoms: N1_14  and  C13_15 
REMARK    7  A    between atoms: C13_15  and  C14_16 
ROOT
ATOM      1  C3  <0> d           0.742  -0.511   1.242  0.00  0.00     0.183 C 
ENDROOT
BRANCH   1   2
ATOM      2  C2  <0> d           0.002  -0.004   0.002  0.00  0.00     0.249 C 
ATOM      3  C1  <0> d          -0.019   1.526   0.010  0.00  0.00     0.045 C 
BRANCH   2   4
ATOM      4  N1  <0> d           0.690  -0.478  -1.207  0.00  0.00     0.094 N 
ATOM      5  H18 <0> d           1.485   0.104  -1.422  0.00  0.00     0.316 HD
BRANCH   4   6
ATOM      6  C13 <0> d          -0.235  -0.547  -2.346  0.00  0.00     0.310 C 
BRANCH   6   7
ATOM      7  C14 <0> d           0.504  -1.036  -3.564  0.00  0.00    -0.013 A 
ATOM      8  C18 <0> d           0.578  -2.387  -3.843  0.00  0.00     0.125 A 
ATOM      9  N2  <0> d           1.218  -2.822  -4.911  0.00  0.00    -0.273 NA
ATOM     10  C17 <0> d           1.819  -1.995  -5.743  0.00  0.00     0.116 A 
ATOM     11  C16 <0> d           1.793  -0.630  -5.526  0.00  0.00     0.020 A 
ATOM     12  C15 <0> d           1.124  -0.135  -4.417  0.00  0.00     0.012 A 
ENDBRANCH   6   7
ENDBRANCH   4   6
ENDBRANCH   2   4
ENDBRANCH   1   2
BRANCH   1  13
ATOM     13  C4  <0> d           0.870  -2.011   1.172  0.00  0.00    -0.028 A 
ATOM     14  C9  <0> d          -0.060  -2.814   1.805  0.00  0.00     0.010 A 
ATOM     15  C8  <0> d           0.055  -4.190   1.737  0.00  0.00     0.008 A 
ATOM     16  C7  <0> d           1.105  -4.763   1.044  0.00  0.00    -0.055 A 
ATOM     17  C6  <0> d           2.038  -3.959   0.416  0.00  0.00     0.008 A 
ATOM     18  C5  <0> d           1.921  -2.583   0.480  0.00  0.00     0.010 A 
BRANCH  16  19
ATOM     19  C10 <0> d           1.232  -6.263   0.974  0.00  0.00     0.010 C 
ATOM     20  C11 <0> d           1.370  -6.830   2.388  0.00  0.00     0.015 C 
ATOM     21  C12 <0> d          -0.014  -6.849   0.308  0.00  0.00     0.015 C 
ENDBRANCH  16  19
ENDBRANCH   1  13
BRANCH   1  22
ATOM     22  O1  <0> d           2.044   0.076   1.292  0.00  0.00    -0.389 OA
ATOM     23  H17 <0> d           2.598  -0.128   0.526  0.00  0.00     0.210 HD
ENDBRANCH   1  22
TORSDOF 7
ENDMDL
MODEL ZINC71736118
REMARK  4 active torsions:
REMARK  status: ('A' for Active; 'I' for Inactive)
REMARK    1  A    between atoms: C4_4  and  C7_7 
REMARK    2  A    between atoms: C7_7  and  N1_8 
REMARK    3  A    between atoms: C10_11  and  N2_14 
REMARK       I    between atoms: N2_14  and  C13_15 
REMARK    4  A    between atoms: C13_15  and  C14_17 
ROOT
ATOM      1  N1  <0> d           4.153  -0.953   1.342  0.00  0.00    -0.067 N 
ATOM      2  C8  <0> d           3.203  -1.854   2.005  0.00  0.00     0.237 C 
ATOM      3  C9  <0> d           3.614  -2.050   3.466  0.00  0.00     0.053 C 
ATOM      4  C10 <0> d           5.019  -2.657   3.518  0.00  0.00     0.087 C 
ATOM      5  C11 <0> d           5.987  -1.746   2.760  0.00  0.00     0.053 C 
ATOM      6  C12 <0> d           5.489  -1.562   1.325  0.00  0.00     0.237 C 
ATOM      7  H25 <0> d           4.190  -0.078   1.843  0.00  0.00     0.280 HD
ENDROOT
BRANCH   4   8
ATOM      8  N2  <0> d           5.449  -2.776   4.914  0.00  0.00    -0.355 N 
ATOM      9  C13 <0> d           6.370  -3.698   5.258  0.00  0.00     0.242 C 
ATOM     10  O1  <0> d           6.842  -4.429   4.414  0.00  0.00    -0.271 OA
ATOM     11  H18 <0> d           5.071  -2.192   5.589  0.00  0.00     0.162 HD
BRANCH   9  12
ATOM     12  C14 <0> d           6.813  -3.821   6.694  0.00  0.00     0.204 C 
ATOM     13  N4  <0> d           7.409  -5.137   6.906  0.00  0.00    -0.345 N 
ATOM     14  C17 <0> d           8.513  -5.327   7.633  0.00  0.00     0.246 C 
ATOM     15  H24 <0> d           6.982  -5.909   6.503  0.00  0.00     0.163 HD
ATOM     16  C16 <0> d           9.272  -4.197   8.268  0.00  0.00     0.371 C 
ATOM     17  O2  <0> d           8.921  -6.459   7.785  0.00  0.00    -0.272 OA
ATOM     18  N3  <0> d           8.428  -2.995   8.325  0.00  0.00     0.094 N 
ATOM     19  C15 <0> d           7.837  -2.728   7.004  0.00  0.00     0.304 C 
ATOM     20  H21 <0> d           8.955  -2.200   8.653  0.00  0.00     0.316 HD
ENDBRANCH   9  12
ENDBRANCH   4   8
BRANCH   1  21
ATOM     21  C7  <0> d           3.711  -0.707  -0.038  0.00  0.00     0.273 C 
BRANCH  21  22
ATOM     22  C4  <0> d           2.396   0.029  -0.020  0.00  0.00    -0.033 A 
ATOM     23  C3  <0> d           2.377   1.411  -0.013  0.00  0.00     0.009 A 
ATOM     24  C2  <0> d           1.171   2.086   0.002  0.00  0.00     0.001 A 
ATOM     25  C1  <0> d          -0.017   1.378   0.010  0.00  0.00     0.000 A 
ATOM     26  C6  <0> d           0.002  -0.004   0.002  0.00  0.00     0.001 A 
ATOM     27  C5  <0> d           1.208  -0.679  -0.012  0.00  0.00     0.009 A 
ENDBRANCH  21  22
ENDBRANCH   1  21
TORSDOF 4
ENDMDL
MODEL ZINC35889631
REMARK  2 active torsions:
REMARK  status: ('A' for Active; 'I' for Inactive)
REMARK    1  A    between atoms: N2_17  and  C16_20 
REMARK    2  A    between atoms: C20_24  and  N3_26 
ROOT
ATOM      1  C1  <0> d          -0.702   1.151   0.438  0.00  0.00     0.001 A 
ATOM      2  C2  <0> d           0.383   1.980   0.657  0.00  0.00     0.002 A 
ATOM      3  C3  <0> d           1.657   1.456   0.725  0.00  0.00     0.030 A 
ATOM      4  C4  <0> d           1.861   0.087   0.572  0.00  0.00     0.044 A 
ATOM      5  C5  <0> d           0.762  -0.738   0.350  0.00  0.00     0.018 A 
ATOM      6  C6  <0> d          -0.509  -0.210   0.285  0.00  0.00     0.012 A 
ATOM      7  C7  <0> d           1.311  -2.131   0.225  0.00  0.00     0.281 A 
ATOM      8  C8  <0> d           0.975  -2.744  -1.140  0.00  0.00     0.147 A 
ATOM      9  C9  <0> d          -0.259  -3.649  -0.871  0.00  0.00     0.128 A 
ATOM     10  C10 <0> d          -0.541  -3.510   0.636  0.00  0.00     0.239 C 
ATOM     11  N1  <0> d           0.735  -3.033   1.237  0.00  0.00     0.118 N 
ATOM     12  C11 <0> d           1.563  -4.258   1.347  0.00  0.00     0.275 C 
ATOM     13  C12 <0> d           0.577  -5.380   1.730  0.00  0.00     0.032 C 
ATOM     14  C13 <0> d          -0.816  -4.902   1.233  0.00  0.00     0.038 C 
ATOM     15  C14 <0> d          -1.360  -2.984  -1.666  0.00  0.00     0.238 A 
ATOM     16  O1  <0> d          -2.507  -3.370  -1.733  0.00  0.00    -0.272 OA
ATOM     17  N2  <0> d          -0.871  -1.902  -2.283  0.00  0.00    -0.252 N 
ATOM     18  C15 <0> d           0.443  -1.671  -2.063  0.00  0.00     0.239 A 
ATOM     19  O2  <0> d           1.094  -0.757  -2.523  0.00  0.00    -0.272 OA
ATOM     20  C22 <0> d           2.797  -1.982   0.405  0.00  0.00     0.267 A 
ATOM     21  O5  <0> d           3.623  -2.870   0.379  0.00  0.00    -0.270 OA
ATOM     22  N4  <0> d           3.034  -0.670   0.601  0.00  0.00    -0.324 N 
ATOM     23  H17 <0> d           3.917  -0.295   0.745  0.00  0.00     0.169 HD
ENDROOT
BRANCH  17  24
ATOM     24  C16 <0> d          -1.657  -1.075  -3.099  0.00  0.00     0.047 A 
ATOM     25  C21 <0> d          -2.683  -0.323  -2.544  0.00  0.00     0.068 A 
ATOM     26  C20 <0> d          -3.451   0.495  -3.349  0.00  0.00     0.126 A 
ATOM     27  C19 <0> d          -3.206   0.557  -4.709  0.00  0.00     0.067 A 
ATOM     28  C18 <0> d          -2.187  -0.197  -5.266  0.00  0.00     0.029 A 
ATOM     29 Cl1  <0> d          -4.178   1.581  -5.719  0.00  0.00    -0.082 Cl
ATOM     30  C17 <0> d          -1.412  -1.011  -4.464  0.00  0.00     0.032 A 
BRANCH  26  31
ATOM     31  N3  <0> d          -4.541   1.303  -2.756  0.00  0.00    -0.114 N 
ATOM     32  O3  <0> d          -4.756   1.250  -1.568  0.00  0.00    -0.532 OA
ATOM     33  O4  <0> d          -5.217   2.016  -3.461  0.00  0.00    -0.532 OA
ENDBRANCH  26  31
ENDBRANCH  17  24
TORSDOF 2
ENDMDL
MODEL ZINC71763434
REMARK  3 active torsions:
REMARK  status: ('A' for Active; 'I' for Inactive)
REMARK    1  A    between atoms: C4_5  and  N3_9 
REMARK    2  A    between atoms: C9_12  and  N4_16 
REMARK    3  A    between atoms: C10_13  and  O1_15 
ROOT
ATOM      1  C1  <0> d           1.321   1.435   1.175  0.00  0.00     0.035 A 
ATOM      2  C2  <0> d           1.126   2.079  -0.041  0.00  0.00    -0.032 A 
ATOM      3  C3  <0> d           1.005   1.331  -1.192  0.00  0.00     0.043 A 
ATOM      4  N1  <0> d           1.065   0.005  -1.144  0.00  0.00    -0.234 NA
ATOM      5  C4  <0> d           1.247  -0.656  -0.017  0.00  0.00     0.147 A 
ATOM      6  C5  <0> d           1.386   0.040   1.197  0.00  0.00     0.090 A 
ATOM      7  C6  <0> d           1.590  -0.665   2.427  0.00  0.00     0.103 C 
ATOM      8  N2  <0> d           1.751  -1.224   3.403  0.00  0.00    -0.191 NA
ATOM      9  C16 <0> d           0.810   1.965  -2.547  0.00  0.00     0.060 C 
ATOM     10  C17 <0> d           0.329   3.407  -2.401  0.00  0.00     0.006 C 
ATOM     11  C18 <0> d           1.274   4.138  -1.439  0.00  0.00     0.005 C 
ATOM     12  C19 <0> d           1.052   3.582  -0.033  0.00  0.00     0.040 C 
ENDROOT
BRANCH   5  13
ATOM     13  N3  <0> d           1.302  -2.039  -0.029  0.00  0.00    -0.362 N 
ATOM     14  C11 <0> d           2.589  -2.736  -0.159  0.00  0.00     0.158 C 
ATOM     15  C10 <0> d           2.507  -3.721  -1.323  0.00  0.00     0.169 C 
ATOM     16  C9  <0> d           1.306  -4.649  -1.120  0.00  0.00     0.254 C 
ATOM     17  C8  <0> d           0.019  -3.822  -1.093  0.00  0.00     0.058 C 
ATOM     18  C7  <0> d           0.074  -2.838   0.080  0.00  0.00     0.127 C 
BRANCH  15  19
ATOM     19  O1  <0> d           3.705  -4.498  -1.380  0.00  0.00    -0.392 OA
ATOM     20  H10 <0> d           4.508  -3.973  -1.508  0.00  0.00     0.210 HD
ENDBRANCH  15  19
BRANCH  16  21
ATOM     21  N4  <0> d           1.243  -5.616  -2.224  0.00  0.00     0.099 N 
ATOM     22  C15 <0> d           0.174  -6.600  -2.002  0.00  0.00     0.299 C 
ATOM     23  C14 <0> d           0.183  -7.621  -3.143  0.00  0.00     0.198 C 
ATOM     24  O2  <0> d           0.037  -6.937  -4.390  0.00  0.00    -0.388 OA
ATOM     25  C13 <0> d           1.062  -5.971  -4.639  0.00  0.00     0.198 C 
ATOM     26  C12 <0> d           1.063  -4.933  -3.513  0.00  0.00     0.299 C 
ENDBRANCH  16  21
ENDBRANCH   5  13
TORSDOF 3
ENDMDL
MODEL ZINC71809706
REMARK  4 active torsions:
REMARK  status: ('A' for Active; 'I' for Inactive)
REMARK    1  A    between atoms: C2_2  and  C4_4 
REMARK    2  A    between atoms: C2_2  and  C10_10 
REMARK       I    between atoms: C10_10  and  N1_12 
REMARK    3  A    between atoms: C17_19  and  S1_21 
REMARK    4  A    between atoms: S1_21  and  N2_24 
ROOT
ATOM      1  C10 <0> d           0.896  -0.731  -0.997  0.00  0.00     0.237 C 
ATOM      2  O1  <0> d           0.451  -1.679  -1.609  0.00  0.00    -0.272 OA
ATOM      3  N1  <0> d           2.174  -0.348  -1.185  0.00  0.00    -0.316 N 
ATOM      4  C11 <0> d           2.858   0.697  -0.419  0.00  0.00     0.137 A 
ATOM      5  C12 <0> d           4.279   0.760  -1.003  0.00  0.00     0.061 A 
ATOM      6  C13 <0> d           4.290  -0.289  -2.091  0.00  0.00    -0.028 A 
ATOM      7  C14 <0> d           3.043  -0.892  -2.135  0.00  0.00     0.043 A 
ATOM      8  C15 <0> d           2.813  -1.906  -3.067  0.00  0.00     0.032 A 
ATOM      9  C16 <0> d           3.816  -2.302  -3.926  0.00  0.00     0.027 A 
ATOM     10  C17 <0> d           5.058  -1.697  -3.871  0.00  0.00     0.080 A 
ATOM     11  C18 <0> d           5.291  -0.686  -2.957  0.00  0.00     0.034 A 
ENDROOT
BRANCH   1  12
ATOM     12  C2  <0> d           0.019   0.018  -0.027  0.00  0.00     0.061 C 
ATOM     13  C1  <0> d           0.611  -0.086   1.380  0.00  0.00     0.030 C 
ATOM     14  C3  <0> d          -1.386  -0.589  -0.036  0.00  0.00     0.030 C 
BRANCH  12  15
ATOM     15  C4  <0> d          -0.057   1.467  -0.435  0.00  0.00    -0.041 A 
ATOM     16  C9  <0> d          -0.657   2.389   0.402  0.00  0.00     0.008 A 
ATOM     17  C8  <0> d          -0.723   3.719   0.031  0.00  0.00     0.001 A 
ATOM     18  C7  <0> d          -0.197   4.125  -1.182  0.00  0.00     0.000 A 
ATOM     19  C6  <0> d           0.397   3.201  -2.021  0.00  0.00     0.001 A 
ATOM     20  C5  <0> d           0.467   1.872  -1.648  0.00  0.00     0.008 A 
ENDBRANCH  12  15
ENDBRANCH   1  12
BRANCH  10  21
ATOM     21  S1  <0> d           6.338  -2.206  -4.971  0.00  0.00     0.260 S 
ATOM     22  O2  <0> d           7.568  -1.861  -4.349  0.00  0.00    -0.200 OA
ATOM     23  O3  <0> d           6.030  -3.537  -5.364  0.00  0.00    -0.200 OA
BRANCH  21  24
ATOM     24  N2  <0> d           6.215  -1.270  -6.331  0.00  0.00    -0.307 N 
ATOM     25  C23 <0> d           6.940   0.003  -6.432  0.00  0.00     0.135 C 
ATOM     26  C22 <0> d           5.952   1.112  -6.787  0.00  0.00     0.021 C 
ATOM     27  C21 <0> d           5.186   0.724  -8.053  0.00  0.00     0.003 C 
ATOM     28  C20 <0> d           4.399  -0.564  -7.800  0.00  0.00     0.021 C 
ATOM     29  C19 <0> d           5.374  -1.695  -7.459  0.00  0.00     0.135 C 
ENDBRANCH  21  24
ENDBRANCH  10  21
TORSDOF 4
ENDMDL
MODEL ZINC52511673
REMARK  3 active torsions:
REMARK  status: ('A' for Active; 'I' for Inactive)
REMARK    1  A    between atoms: O1_2  and  C2_3 
REMARK    2  A    between atoms: C5_6  and  N1_9 
REMARK    3  A    between atoms: N2_13  and  C13_16 
ROOT
ATOM      1  C13 <0> d           6.026  -1.759  -4.223  0.00  0.00     0.115 A 
ATOM      2  C14 <0> d           6.241  -0.406  -4.496  0.00  0.00     0.120 A 
ATOM      3  C15 <0> d           7.204   0.197  -3.685  0.00  0.00     0.158 A 
ATOM      4  N3  <0> d           7.782  -0.548  -2.785  0.00  0.00    -0.196 NA
ATOM      5  S1  <0> d           7.087  -2.058  -2.958  0.00  0.00     0.032 SA
ATOM      6 Cl1  <0> d           7.615   1.874  -3.868  0.00  0.00    -0.060 Cl
ATOM      7  C16 <0> d           5.534   0.301  -5.521  0.00  0.00     0.105 C 
ATOM      8  N4  <0> d           4.974   0.863  -6.334  0.00  0.00    -0.191 NA
ENDROOT
BRANCH   1   9
ATOM      9  N2  <0> d           5.151  -2.633  -4.839  0.00  0.00    -0.371 N 
ATOM     10  C10 <0> d           5.073  -4.043  -4.388  0.00  0.00     0.125 C 
ATOM     11  C9  <0> d           3.879  -4.247  -3.553  0.00  0.00     0.040 C 
ATOM     12  C8  <0> d           2.587  -3.886  -4.305  0.00  0.00     0.124 C 
ATOM     13  N1  <0> d           2.458  -2.457  -4.301  0.00  0.00    -0.379 N 
ATOM     14  C12 <0> d           2.958  -1.614  -5.421  0.00  0.00     0.143 C 
ATOM     15  C11 <0> d           4.318  -2.175  -5.915  0.00  0.00     0.143 C 
BRANCH  13  16
ATOM     16  C5  <0> d           1.836  -1.836  -3.212  0.00  0.00     0.030 A 
ATOM     17  C4  <0> d           1.586  -0.471  -3.240  0.00  0.00     0.032 A 
ATOM     18  C3  <0> d           0.973   0.141  -2.165  0.00  0.00     0.039 A 
ATOM     19  C2  <0> d           0.606  -0.608  -1.056  0.00  0.00     0.068 A 
ATOM     20  C7  <0> d           0.861  -1.971  -1.025  0.00  0.00     0.039 A 
ATOM     21  C6  <0> d           1.469  -2.585  -2.102  0.00  0.00     0.032 A 
BRANCH  19  22
ATOM     22  O1  <0> d           0.002  -0.004   0.002  0.00  0.00    -0.356 OA
ATOM     23  C1  <0> d          -0.230   1.402  -0.098  0.00  0.00     0.210 C 
ENDBRANCH  19  22
ENDBRANCH  13  16
ENDBRANCH   1   9
TORSDOF 3
ENDMDL
MODEL ZINC11867997
REMARK  6 active torsions:
REMARK  status: ('A' for Active; 'I' for Inactive)
REMARK    1  A    between atoms: C2_2  and  C4_4 
REMARK    2  A    between atoms: C8_8  and  N1_10 
REMARK       I    between atoms: N1_10  and  C10_11 
REMARK    3  A    between atoms: C10_11  and  C11_13 
REMARK    4  A    between atoms: C14_16  and  N2_19 
REMARK    5  A    between atoms: N2_19  and  S1_20 
REMARK    6  A    between atoms: S1_20  and  C17_23 
ROOT
ATOM      1  C11 <0> d           5.148  -4.212  -2.795  0.00  0.00     0.032 A 
ATOM      2  C12 <0> d           5.725  -4.604  -1.583  0.00  0.00     0.019 A 
ATOM      3  C13 <0> d           6.857  -5.387  -1.584  0.00  0.00     0.031 A 
ATOM      4  C14 <0> d           7.428  -5.788  -2.789  0.00  0.00     0.042 A 
ATOM      5  C15 <0> d           6.855  -5.399  -3.997  0.00  0.00     0.031 A 
ATOM      6  C16 <0> d           5.719  -4.622  -4.003  0.00  0.00     0.019 A 
ENDROOT
BRANCH   4   7
ATOM      7  N2  <0> d           8.572  -6.578  -2.787  0.00  0.00    -0.281 N 
ATOM      8  H19 <0> d           9.311  -6.359  -2.197  0.00  0.00     0.179 HD
BRANCH   7   9
ATOM      9  S1  <0> d           8.673  -7.892  -3.789  0.00  0.00     0.263 S 
ATOM     10  O2  <0> d           8.338  -7.435  -5.092  0.00  0.00    -0.200 OA
ATOM     11  O3  <0> d           9.909  -8.529  -3.499  0.00  0.00    -0.200 OA
BRANCH   9  12
ATOM     12  C17 <0> d           7.403  -9.014  -3.307  0.00  0.00     0.082 A 
ATOM     13  C22 <0> d           6.187  -8.999  -3.962  0.00  0.00     0.057 A 
ATOM     14  C21 <0> d           5.190  -9.886  -3.586  0.00  0.00     0.064 A 
ATOM     15  C20 <0> d           5.415 -10.783  -2.540  0.00  0.00     0.063 A 
ATOM     16  N3  <0> d           3.893 -10.114  -4.040  0.00  0.00    -0.306 N 
ATOM     17  C19 <0> d           6.636 -10.786  -1.884  0.00  0.00     0.033 A 
ATOM     18  N4  <0> d           4.248 -11.528  -2.391  0.00  0.00    -0.307 N 
ATOM     19  C18 <0> d           7.626  -9.903  -2.269  0.00  0.00     0.028 A 
ATOM     20  C23 <0> d           3.354 -11.104  -3.304  0.00  0.00     0.325 A 
ATOM     21  H2  <0> d           4.103 -12.232  -1.739  0.00  0.00     0.170 HD
ATOM     22  O4  <0> d           2.230 -11.549  -3.444  0.00  0.00    -0.247 OA
ATOM     23  H1  <0> d           3.453  -9.641  -4.764  0.00  0.00     0.170 HD
ENDBRANCH   9  12
ENDBRANCH   7   9
ENDBRANCH   4   7
BRANCH   1  24
ATOM     24  C10 <0> d           3.934  -3.374  -2.797  0.00  0.00     0.256 C 
ATOM     25  N1  <0> d           3.385  -2.980  -1.632  0.00  0.00    -0.323 N 
ATOM     26  H14 <0> d           3.828  -3.184  -0.793  0.00  0.00     0.169 HD
ATOM     27  O1  <0> d           3.430  -3.038  -3.852  0.00  0.00    -0.267 OA
BRANCH  25  28
ATOM     28  C8  <0> d           2.175  -2.278  -1.631  0.00  0.00     0.035 A 
ATOM     29  C7  <0> d           1.215  -2.545  -2.598  0.00  0.00     0.029 A 
ATOM     30  C6  <0> d           0.021  -1.850  -2.594  0.00  0.00     0.003 A 
ATOM     31  C5  <0> d          -0.218  -0.889  -1.628  0.00  0.00     0.007 A 
ATOM     32  C4  <0> d           0.736  -0.621  -0.664  0.00  0.00    -0.053 A 
ATOM     33  C9  <0> d           1.934  -1.309  -0.665  0.00  0.00     0.037 A 
BRANCH  32  34
ATOM     34  C2  <0> d           0.471   0.426   0.386  0.00  0.00     0.010 C 
ATOM     35  C1  <0> d           0.231   1.778  -0.290  0.00  0.00     0.015 C 
ATOM     36  C3  <0> d          -0.767   0.035   1.196  0.00  0.00     0.015 C 
ENDBRANCH  32  34
ENDBRANCH  25  28
ENDBRANCH   1  24
TORSDOF 6
ENDMDL
MODEL ZINC71822249
REMARK  3 active torsions:
REMARK  status: ('A' for Active; 'I' for Inactive)
REMARK    1  A    between atoms: O1_2  and  C2_3 
REMARK    2  A    between atoms: C6_7  and  C8_9 
REMARK       I    between atoms: N1_13  and  C12_14 
REMARK    3  A    between atoms: C12_14  and  C13_16 
ROOT
ATOM      1  C8  <0> d          -2.660  -3.996   0.051  0.00  0.00     0.120 C 
ATOM      2  C9  <0> d          -3.077  -4.340   1.497  0.00  0.00     0.032 C 
ATOM      3  C10 <0> d          -4.079  -5.509   1.300  0.00  0.00     0.022 C 
ATOM      4  C11 <0> d          -4.784  -5.095  -0.016  0.00  0.00     0.127 C 
ATOM      5  N1  <0> d          -3.720  -4.489  -0.841  0.00  0.00    -0.339 N 
ATOM      6  C12 <0> d          -3.719  -4.399  -2.186  0.00  0.00     0.254 C 
ATOM      7  O2  <0> d          -2.817  -3.816  -2.755  0.00  0.00    -0.267 OA
ENDROOT
BRANCH   1   8
ATOM      8  C6  <0> d          -2.517  -2.503  -0.099  0.00  0.00    -0.033 A 
ATOM      9  C5  <0> d          -3.642  -1.712  -0.241  0.00  0.00     0.009 A 
ATOM     10  C4  <0> d          -3.513  -0.342  -0.378  0.00  0.00     0.003 A 
ATOM     11  C3  <0> d          -2.260   0.239  -0.374  0.00  0.00     0.037 A 
ATOM     12  C2  <0> d          -1.130  -0.553  -0.232  0.00  0.00     0.068 A 
ATOM     13  C7  <0> d          -1.261  -1.927  -0.100  0.00  0.00     0.046 A 
BRANCH  12  14
ATOM     14  O1  <0> d           0.104   0.017  -0.228  0.00  0.00    -0.356 OA
ATOM     15  C1  <0> d           0.163   1.438  -0.368  0.00  0.00     0.210 C 
ENDBRANCH  12  14
ENDBRANCH   1   8
BRANCH   6  16
ATOM     16  C13 <0> d          -4.813  -5.010  -2.968  0.00  0.00     0.035 A 
ATOM     17  C18 <0> d          -4.588  -5.425  -4.282  0.00  0.00     0.062 A 
ATOM     18  C17 <0> d          -5.614  -6.001  -5.005  0.00  0.00     0.155 A 
ATOM     19  C16 <0> d          -6.869  -6.155  -4.432  0.00  0.00     0.154 A 
ATOM     20  F1  <0> d          -5.397  -6.409  -6.275  0.00  0.00    -0.203 F 
ATOM     21  C15 <0> d          -7.097  -5.738  -3.130  0.00  0.00     0.046 A 
ATOM     22  F2  <0> d          -7.871  -6.713  -5.146  0.00  0.00    -0.203 F 
ATOM     23  C14 <0> d          -6.078  -5.168  -2.397  0.00  0.00     0.020 A 
ENDBRANCH   6  16
TORSDOF 3
ENDMDL
MODEL ZINC71829233
REMARK  5 active torsions:
REMARK  status: ('A' for Active; 'I' for Inactive)
REMARK    1  A    between atoms: C2_2  and  N1_3 
REMARK    2  A    between atoms: N1_3  and  C3_4 
REMARK       I    between atoms: N1_3  and  C9_10 
REMARK    3  A    between atoms: C9_10  and  C10_12 
REMARK    4  A    between atoms: C10_12  and  S1_13 
REMARK    5  A    between atoms: S1_13  and  C11_14 
ROOT
ATOM      1  N1  <0> d           0.688  -0.476  -1.203  0.00  0.00    -0.347 N 
ATOM      2  C9  <0> d          -0.013  -0.705  -2.332  0.00  0.00     0.229 C 
ATOM      3  O1  <0> d           0.555  -1.096  -3.330  0.00  0.00    -0.273 OA
ENDROOT
BRANCH   2   4
ATOM      4  C10 <0> d          -1.502  -0.473  -2.354  0.00  0.00     0.182 C 
BRANCH   4   5
ATOM      5  S1  <0> d          -2.151  -0.866  -4.002  0.00  0.00    -0.120 SA
BRANCH   5   6
ATOM      6  C11 <0> d          -3.879  -0.549  -3.866  0.00  0.00     0.006 A 
ATOM      7  C16 <0> d          -4.711  -0.746  -4.961  0.00  0.00    -0.045 A 
ATOM      8  C15 <0> d          -6.066  -0.503  -4.849  0.00  0.00     0.008 A 
ATOM      9  C17 <0> d          -4.137  -1.231  -6.268  0.00  0.00     0.049 C 
ATOM     10  C14 <0> d          -6.593  -0.052  -3.653  0.00  0.00     0.001 A 
ATOM     11  C13 <0> d          -5.766   0.150  -2.562  0.00  0.00     0.001 A 
ATOM     12  C12 <0> d          -4.412  -0.097  -2.665  0.00  0.00     0.019 A 
ENDBRANCH   5   6
ENDBRANCH   4   5
ENDBRANCH   2   4
BRANCH   1  13
ATOM     13  C2  <0> d           0.002  -0.004   0.002  0.00  0.00     0.122 C 
ATOM     14  C1  <0> d          -0.019   1.526   0.010  0.00  0.00     0.026 C 
ENDBRANCH   1  13
BRANCH   1  15
ATOM     15  C3  <0> d           2.135  -0.701  -1.182  0.00  0.00     0.087 C 
ATOM     16  C8  <0> d           2.806   0.198  -2.222  0.00  0.00     0.025 C 
ATOM     17  C7  <0> d           4.318  -0.036  -2.200  0.00  0.00     0.002 C 
ATOM     18  C6  <0> d           4.612  -1.502  -2.528  0.00  0.00     0.000 C 
ATOM     19  C5  <0> d           3.941  -2.401  -1.488  0.00  0.00     0.002 C 
ATOM     20  C4  <0> d           2.429  -2.167  -1.510  0.00  0.00     0.025 C 
ENDBRANCH   1  15
TORSDOF 5
ENDMDL
MODEL ZINC71846426
REMARK  4 active torsions:
REMARK  status: ('A' for Active; 'I' for Inactive)
REMARK    1  A    between atoms: C2_2  and  C3_3 
REMARK    2  A    between atoms: C2_2  and  N1_12 
REMARK       I    between atoms: N1_12  and  C12_14 
REMARK    3  A    between atoms: C12_14  and  C13_16 
REMARK    4  A    between atoms: C13_16  and  C14_17 
ROOT
ATOM      1  N1  <0> d           0.688  -0.476  -1.203  0.00  0.00    -0.346 N 
ATOM      2  C11 <0> d           0.170  -0.122  -2.527  0.00  0.00     0.153 C 
ATOM      3  C12 <0> d           1.795  -1.237  -1.094  0.00  0.00     0.224 C 
ATOM      4  O2  <0> d           2.224  -1.530   0.002  0.00  0.00    -0.273 OA
ENDROOT
BRANCH   1   5
ATOM      5  C2  <0> d           0.002  -0.004   0.002  0.00  0.00     0.140 C 
ATOM      6  C1  <0> d          -0.019   1.526   0.010  0.00  0.00     0.039 C 
BRANCH   5   7
ATOM      7  C3  <0> d          -1.412  -0.526   0.013  0.00  0.00     0.077 A 
ATOM      8  O1  <0> d          -2.211  -0.606  -1.066  0.00  0.00    -0.312 OA
ATOM      9  C10 <0> d          -3.414  -1.117  -0.736  0.00  0.00     0.086 A 
ATOM     10  C5  <0> d          -3.393  -1.375   0.645  0.00  0.00     0.000 A 
ATOM     11  C9  <0> d          -4.564  -1.401  -1.462  0.00  0.00     0.038 A 
ATOM     12  C4  <0> d          -2.057  -0.971   1.099  0.00  0.00     0.049 A 
ATOM     13  C6  <0> d          -4.517  -1.908   1.275  0.00  0.00     0.014 A 
ATOM     14  C7  <0> d          -5.639  -2.180   0.542  0.00  0.00     0.001 A 
ATOM     15  C8  <0> d          -5.665  -1.929  -0.822  0.00  0.00     0.003 A 
ENDBRANCH   5   7
ENDBRANCH   1   5
BRANCH   3  16
ATOM     16  C13 <0> d           2.501  -1.723  -2.334  0.00  0.00     0.144 C 
BRANCH  16  17
ATOM     17  C14 <0> d           3.700  -2.546  -1.940  0.00  0.00    -0.021 A 
ATOM     18  C17 <0> d           3.707  -3.974  -1.612  0.00  0.00    -0.001 A 
ATOM     19  C16 <0> d           5.043  -4.297  -1.312  0.00  0.00     0.042 A 
ATOM     20  C18 <0> d           2.722  -4.961  -1.555  0.00  0.00     0.014 A 
ATOM     21  N2  <0> d           5.779  -3.141  -1.443  0.00  0.00    -0.365 N 
ATOM     22  C21 <0> d           5.366  -5.604  -0.963  0.00  0.00     0.030 A 
ATOM     23  C15 <0> d           4.963  -2.109  -1.817  0.00  0.00     0.097 A 
ATOM     24  H2  <0> d           6.735  -3.069  -1.292  0.00  0.00     0.165 HD
ATOM     25  C20 <0> d           4.376  -6.561  -0.904  0.00  0.00     0.002 A 
ATOM     26  C19 <0> d           3.060  -6.238  -1.205  0.00  0.00     0.001 A 
ENDBRANCH  16  17
ENDBRANCH   3  16
TORSDOF 4
ENDMDL
MODEL ZINC29177288
REMARK  5 active torsions:
REMARK  status: ('A' for Active; 'I' for Inactive)
REMARK    1  A    between atoms: C4_4  and  C7_7 
REMARK    2  A    between atoms: C7_7  and  C8_8 
REMARK    3  A    between atoms: C7_7  and  N2_14 
REMARK    4  A    between atoms: C8_8  and  N1_9 
REMARK       I    between atoms: N2_14  and  C13_15 
REMARK    5  A    between atoms: C13_15  and  C14_17 
ROOT
ATOM      1  C7  <0> d           3.711  -0.707  -0.038  0.00  0.00     0.144 C 
ENDROOT
BRANCH   1   2
ATOM      2  C4  <0> d           2.396   0.029  -0.020  0.00  0.00    -0.034 A 
ATOM      3  C3  <0> d           2.377   1.411  -0.013  0.00  0.00     0.009 A 
ATOM      4  C2  <0> d           1.171   2.086   0.002  0.00  0.00     0.001 A 
ATOM      5  C1  <0> d          -0.017   1.378   0.010  0.00  0.00     0.000 A 
ATOM      6  C6  <0> d           0.002  -0.004   0.002  0.00  0.00     0.001 A 
ATOM      7  C5  <0> d           1.208  -0.679  -0.012  0.00  0.00     0.009 A 
ENDBRANCH   1   2
BRANCH   1   8
ATOM      8  C8  <0> d           4.049  -1.182   1.377  0.00  0.00     0.264 C 
BRANCH   8   9
ATOM      9  N1  <0> d           5.268  -2.000   1.341  0.00  0.00    -0.069 N 
ATOM     10  C12 <0> d           5.542  -2.566   2.680  0.00  0.00     0.235 C 
ATOM     11  C11 <0> d           7.072  -2.592   2.855  0.00  0.00     0.029 C 
ATOM     12  C10 <0> d           7.638  -1.979   1.553  0.00  0.00     0.029 C 
ATOM     13  C9  <0> d           6.443  -1.154   1.011  0.00  0.00     0.235 C 
ATOM     14  H22 <0> d           5.170  -2.741   0.663  0.00  0.00     0.280 HD
ENDBRANCH   8   9
ENDBRANCH   1   8
BRANCH   1  15
ATOM     15  N2  <0> d           3.611  -1.865  -0.930  0.00  0.00    -0.347 N 
ATOM     16  C13 <0> d           3.825  -1.716  -2.253  0.00  0.00     0.252 C 
ATOM     17  O1  <0> d           4.099  -0.621  -2.705  0.00  0.00    -0.268 OA
ATOM     18  H17 <0> d           3.392  -2.738  -0.569  0.00  0.00     0.163 HD
BRANCH  16  19
ATOM     19  C14 <0> d           3.724  -2.883  -3.153  0.00  0.00     0.032 A 
ATOM     20  C19 <0> d           3.944  -2.732  -4.524  0.00  0.00     0.020 A 
ATOM     21  C18 <0> d           3.855  -3.825  -5.358  0.00  0.00     0.043 A 
ATOM     22  C17 <0> d           3.536  -5.071  -4.840  0.00  0.00     0.116 A 
ATOM     23  C16 <0> d           3.310  -5.226  -3.481  0.00  0.00     0.043 A 
ATOM     24  F1  <0> d           3.445  -6.139  -5.663  0.00  0.00    -0.206 F 
ATOM     25  C15 <0> d           3.403  -4.140  -2.637  0.00  0.00     0.020 A 
ENDBRANCH  16  19
ENDBRANCH   1  15
TORSDOF 5
ENDMDL
MODEL ZINC58364656
REMARK  4 active torsions:
REMARK  status: ('A' for Active; 'I' for Inactive)
REMARK    1  A    between atoms: C5_5  and  N1_11 
REMARK    2  A    between atoms: C6_6  and  C8_8 
REMARK    3  A    between atoms: N1_11  and  S1_12 
REMARK    4  A    between atoms: S1_12  and  C9_15 
ROOT
ATOM      1  N1  <0> d           0.058  -4.169  -0.058  0.00  0.00    -0.280 N 
ATOM      2  H7  <0> d          -0.469  -4.661   0.591  0.00  0.00     0.179 HD
ENDROOT
BRANCH   1   3
ATOM      3  C5  <0> d           0.208  -2.796   0.067  0.00  0.00     0.059 A 
ATOM      4  C4  <0> d           0.261  -1.992  -1.065  0.00  0.00     0.032 A 
ATOM      5  C3  <0> d           0.410  -0.627  -0.937  0.00  0.00     0.009 A 
ATOM      6  C2  <0> d           0.507  -0.045   0.317  0.00  0.00    -0.061 A 
ATOM      7  C1  <0> d           0.668   1.449   0.440  0.00  0.00     0.048 C 
ATOM      8  C7  <0> d           0.462  -0.823   1.452  0.00  0.00     0.027 A 
ATOM      9  C6  <0> d           0.306  -2.209   1.341  0.00  0.00     0.068 A 
BRANCH   9  10
ATOM     10  C8  <0> d           0.251  -3.047   2.548  0.00  0.00     0.211 C 
ATOM     11  O1  <0> d           0.336  -2.532   3.654  0.00  0.00    -0.644 OA
ATOM     12  O2  <0> d           0.119  -4.259   2.446  0.00  0.00    -0.644 OA
ENDBRANCH   9  10
ENDBRANCH   1   3
BRANCH   1  13
ATOM     13  S1  <0> d           0.779  -4.969  -1.316  0.00  0.00     0.263 S 
ATOM     14  O3  <0> d           0.556  -6.355  -1.098  0.00  0.00    -0.200 OA
ATOM     15  O4  <0> d           0.369  -4.309  -2.506  0.00  0.00    -0.200 OA
BRANCH  13  16
ATOM     16  C9  <0> d           2.516  -4.710  -1.170  0.00  0.00     0.081 A 
ATOM     17  C14 <0> d           3.287  -5.592  -0.436  0.00  0.00     0.052 A 
ATOM     18  C13 <0> d           4.651  -5.393  -0.325  0.00  0.00     0.074 A 
ATOM     19  C12 <0> d           5.243  -4.302  -0.941  0.00  0.00     0.138 A 
ATOM     20 Cl1  <0> d           5.620  -6.504   0.591  0.00  0.00    -0.081 Cl
ATOM     21  C11 <0> d           4.468  -3.417  -1.672  0.00  0.00     0.045 A 
ATOM     22  F1  <0> d           6.574  -4.103  -0.830  0.00  0.00    -0.204 F 
ATOM     23  C10 <0> d           3.106  -3.622  -1.786  0.00  0.00     0.028 A 
ENDBRANCH  13  16
ENDBRANCH   1  13
TORSDOF 4
ENDMDL
MODEL ZINC71882950
REMARK  4 active torsions:
REMARK  status: ('A' for Active; 'I' for Inactive)
REMARK    1  A    between atoms: C5_8  and  C6_9 
REMARK       I    between atoms: C6_9  and  N3_11 
REMARK    2  A    between atoms: N3_11  and  C7_12 
REMARK    3  A    between atoms: C7_12  and  C9_14 
REMARK    4  A    between atoms: C10_16  and  C12_19 
ROOT
ATOM      1  C6  <0> d           0.244  -0.046   2.490  0.00  0.00     0.258 C 
ATOM      2  O2  <0> d           0.146   1.164   2.554  0.00  0.00    -0.267 OA
ATOM      3  N3  <0> d           0.465  -0.766   3.608  0.00  0.00    -0.346 N 
ATOM      4  H5  <0> d           0.619  -1.721   3.547  0.00  0.00     0.163 HD
ENDROOT
BRANCH   3   5
ATOM      5  C7  <0> d           0.472  -0.104   4.915  0.00  0.00     0.140 C 
ATOM      6  C8  <0> d          -0.961   0.000   5.441  0.00  0.00     0.039 C 
BRANCH   5   7
ATOM      7  C9  <0> d           1.304  -0.908   5.880  0.00  0.00     0.097 A 
ATOM      8  S1  <0> d           1.302  -2.572   6.128  0.00  0.00    -0.083 SA
ATOM      9  C11 <0> d           2.552  -2.632   7.402  0.00  0.00     0.079 A 
ATOM     10  C10 <0> d           2.853  -1.313   7.519  0.00  0.00     0.049 A 
ATOM     11  N4  <0> d           2.201  -0.480   6.734  0.00  0.00    -0.247 NA
BRANCH  10  12
ATOM     12  C12 <0> d           3.886  -0.825   8.502  0.00  0.00    -0.006 C 
ATOM     13  C13 <0> d           4.554  -2.024   9.177  0.00  0.00     0.021 C 
ATOM     14  C14 <0> d           4.942  -0.000   7.764  0.00  0.00     0.021 C 
ATOM     15  C15 <0> d           3.209   0.045   9.563  0.00  0.00     0.021 C 
ENDBRANCH  10  12
ENDBRANCH   5   7
ENDBRANCH   3   5
BRANCH   1  16
ATOM     16  C5  <0> d           0.121  -0.727   1.188  0.00  0.00     0.109 A 
ATOM     17  C2  <0> d           0.002  -0.005   0.002  0.00  0.00    -0.015 A 
ATOM     18  C1  <0> d          -0.006   1.502   0.009  0.00  0.00     0.052 C 
ATOM     19  C3  <0> d          -0.105  -0.721  -1.196  0.00  0.00     0.058 A 
ATOM     20  N1  <0> d          -0.098  -2.027  -1.193  0.00  0.00    -0.174 NA
ATOM     21  C17 <0> d          -0.230   0.021  -2.502  0.00  0.00     0.072 C 
ATOM     22  N2  <0> d           0.006  -2.722  -0.120  0.00  0.00    -0.238 N 
ATOM     23  C4  <0> d           0.115  -2.147   1.093  0.00  0.00     0.279 A 
ATOM     24  C16 <0> d           0.005  -4.183  -0.217  0.00  0.00     0.183 C 
ATOM     25  O1  <0> d           0.211  -2.833   2.096  0.00  0.00    -0.265 OA
ENDBRANCH   1  16
TORSDOF 4
ENDMDL
MODEL ZINC64817735
REMARK  6 active torsions:
REMARK  status: ('A' for Active; 'I' for Inactive)
REMARK    1  A    between atoms: C7_7  and  C8_8 
REMARK    2  A    between atoms: N3_17  and  C14_18 
REMARK    3  A    between atoms: C14_18  and  C15_19 
REMARK       I    between atoms: C15_19  and  N4_21 
REMARK    4  A    between atoms: N4_21  and  C16_22 
REMARK    5  A    between atoms: C16_22  and  C17_23 
REMARK    6  A    between atoms: C17_23  and  N5_24 
ROOT
ATOM      1  C8  <0> d           0.891  -0.414   1.638  0.00  0.00     0.091 A 
ATOM      2  C9  <0> d           0.955  -0.878   2.969  0.00  0.00     0.084 A 
ATOM      3  C10 <0> d           0.745   0.178   3.779  0.00  0.00     0.131 A 
ATOM      4  N1  <0> d           0.551   1.280   2.993  0.00  0.00    -0.253 N 
ATOM      5  N2  <0> d           0.653   0.883   1.663  0.00  0.00    -0.170 NA
ATOM      6  C11 <0> d           0.289   2.609   3.550  0.00  0.00     0.162 C 
ATOM      7  C12 <0> d          -0.434   2.448   4.889  0.00  0.00     0.125 C 
ATOM      8  C13 <0> d           0.199   1.373   5.728  0.00  0.00     0.227 C 
ATOM      9  O1  <0> d           0.252   1.516   6.931  0.00  0.00    -0.273 OA
ATOM     10  N3  <0> d           0.710   0.251   5.173  0.00  0.00    -0.294 N 
ENDROOT
BRANCH  10  11
ATOM     11  C14 <0> d           1.208  -0.848   6.004  0.00  0.00     0.236 C 
BRANCH  11  12
ATOM     12  C15 <0> d           2.673  -0.637   6.291  0.00  0.00     0.236 C 
ATOM     13  O2  <0> d           3.244   0.335   5.845  0.00  0.00    -0.272 OA
ATOM     14  N4  <0> d           3.348  -1.529   7.043  0.00  0.00    -0.358 N 
ATOM     15  H15 <0> d           2.891  -2.307   7.399  0.00  0.00     0.162 HD
BRANCH  14  16
ATOM     16  C16 <0> d           4.771  -1.324   7.321  0.00  0.00     0.150 C 
BRANCH  16  17
ATOM     17  C17 <0> d           5.292  -2.472   8.189  0.00  0.00     0.254 C 
BRANCH  17  18
ATOM     18  N5  <0> d           6.744  -2.336   8.360  0.00  0.00    -0.070 N 
ATOM     19  C23 <0> d           7.003  -1.172   9.085  0.00  0.00     0.235 C 
ATOM     20  C22 <0> d           8.516  -0.904   9.229  0.00  0.00     0.028 C 
ATOM     21  C21 <0> d           9.073  -1.796  10.308  0.00  0.00     0.002 C 
ATOM     22  C20 <0> d           9.629  -3.120   9.747  0.00  0.00     0.002 C 
ATOM     23  C19 <0> d           8.718  -3.704   8.651  0.00  0.00     0.028 C 
ATOM     24  C18 <0> d           7.260  -3.557   9.010  0.00  0.00     0.235 C 
ATOM     25  H32 <0> d           7.170  -2.252   7.449  0.00  0.00     0.279 HD
ENDBRANCH  17  18
ENDBRANCH  16  17
ENDBRANCH  14  16
ENDBRANCH  11  12
ENDBRANCH  10  11
BRANCH   1  26
ATOM     26  C7  <0> d           1.067  -1.243   0.419  0.00  0.00     0.000 A 
ATOM     27  C2  <0> d           0.160  -1.140  -0.633  0.00  0.00    -0.049 A 
ATOM     28  C1  <0> d          -1.003  -0.187  -0.536  0.00  0.00     0.049 C 
ATOM     29  C3  <0> d           0.332  -1.909  -1.767  0.00  0.00     0.007 A 
ATOM     30  C4  <0> d           1.399  -2.784  -1.857  0.00  0.00     0.001 A 
ATOM     31  C5  <0> d           2.300  -2.894  -0.813  0.00  0.00     0.001 A 
ATOM     32  C6  <0> d           2.138  -2.130   0.325  0.00  0.00     0.014 A 
ENDBRANCH   1  26
TORSDOF 6
ENDMDL
MODEL ZINC71898214
REMARK  5 active torsions:
REMARK  status: ('A' for Active; 'I' for Inactive)
REMARK    1  A    between atoms: C2_2  and  N1_3 
REMARK       I    between atoms: N1_3  and  C3_4 
REMARK       I    between atoms: C3_4  and  N2_6 
REMARK    2  A    between atoms: N2_6  and  C4_7 
REMARK       I    between atoms: N3_9  and  C9_14 
REMARK    3  A    between atoms: C7_11  and  O2_12 
REMARK    4  A    between atoms: C9_14  and  C10_16 
REMARK    5  A    between atoms: C15_21  and  O4_22 
ROOT
ATOM      1  C4  <0> d          -3.111  -3.784   0.022  0.00  0.00     0.134 C 
ATOM      2  C5  <0> d          -3.189  -4.288  -1.435  0.00  0.00     0.154 C 
ATOM      3  N3  <0> d          -4.612  -4.358  -1.797  0.00  0.00    -0.343 N 
ATOM      4  C6  <0> d          -5.415  -3.899  -0.649  0.00  0.00     0.160 C 
ATOM      5  C7  <0> d          -4.510  -4.138   0.592  0.00  0.00     0.163 C 
ATOM      6  C9  <0> d          -5.102  -4.772  -2.982  0.00  0.00     0.256 C 
ATOM      7  O3  <0> d          -4.342  -5.059  -3.887  0.00  0.00    -0.267 OA
ENDROOT
BRANCH   6   8
ATOM      8  C10 <0> d          -6.560  -4.877  -3.183  0.00  0.00     0.065 A 
ATOM      9  C15 <0> d          -7.090  -5.904  -3.974  0.00  0.00     0.081 A 
ATOM     10  C14 <0> d          -8.463  -5.996  -4.151  0.00  0.00     0.037 A 
ATOM     11  C13 <0> d          -9.301  -5.072  -3.558  0.00  0.00     0.003 A 
ATOM     12  C12 <0> d          -8.780  -4.052  -2.780  0.00  0.00     0.001 A 
ATOM     13  C11 <0> d          -7.419  -3.949  -2.589  0.00  0.00     0.020 A 
BRANCH   9  14
ATOM     14  O4  <0> d          -6.266  -6.808  -4.559  0.00  0.00    -0.360 OA
ATOM     15  H21 <0> d          -6.088  -7.588  -4.016  0.00  0.00     0.217 HD
ENDBRANCH   9  14
ENDBRANCH   6   8
BRANCH   1  16
ATOM     16  N2  <0> d          -2.887  -2.337   0.058  0.00  0.00    -0.334 N 
ATOM     17  C3  <0> d          -1.630  -1.849   0.052  0.00  0.00     0.316 C 
ATOM     18  N1  <0> d          -1.424  -0.518   0.085  0.00  0.00    -0.343 N 
ATOM     19  O1  <0> d          -0.683  -2.611   0.015  0.00  0.00    -0.247 OA
ATOM     20  H8  <0> d          -2.180   0.089   0.115  0.00  0.00     0.164 HD
ATOM     21  H9  <0> d          -3.643  -1.730   0.088  0.00  0.00     0.164 HD
BRANCH  18  22
ATOM     22  C2  <0> d          -0.058   0.012   0.078  0.00  0.00     0.120 C 
ATOM     23  C1  <0> d          -0.104   1.541   0.121  0.00  0.00     0.026 C 
ENDBRANCH  18  22
ENDBRANCH   1  16
BRANCH   5  24
ATOM     24  O2  <0> d          -4.862  -3.262   1.664  0.00  0.00    -0.387 OA
ATOM     25  C8  <0> d          -5.714  -3.858   2.645  0.00  0.00     0.202 C 
ENDBRANCH   5  24
TORSDOF 5
ENDMDL
MODEL ZINC71915273
REMARK  5 active torsions:
REMARK  status: ('A' for Active; 'I' for Inactive)
REMARK    1  A    between atoms: C3_4  and  C5_7 
REMARK    2  A    between atoms: C7_9  and  C8_10 
REMARK       I    between atoms: C8_10  and  N3_12 
REMARK    3  A    between atoms: N3_12  and  C9_13 
REMARK    4  A    between atoms: C9_13  and  C10_14 
REMARK    5  A    between atoms: C9_13  and  C14_19 
ROOT
ATOM      1  C8  <0> d           2.296  -3.904  -0.429  0.00  0.00     0.223 C 
ATOM      2  O1  <0> d           2.194  -2.896   0.239  0.00  0.00    -0.273 OA
ATOM      3  N3  <0> d           3.364  -4.710  -0.273  0.00  0.00    -0.347 N 
ATOM      4  H10 <0> d           3.445  -5.516  -0.807  0.00  0.00     0.163 HD
ENDROOT
BRANCH   3   5
ATOM      5  C9  <0> d           4.403  -4.370   0.702  0.00  0.00     0.165 C 
BRANCH   5   6
ATOM      6  C10 <0> d           4.002  -4.880   2.062  0.00  0.00     0.010 A 
ATOM      7  S1  <0> d           3.214  -6.422   2.497  0.00  0.00    -0.104 SA
ATOM      8  C13 <0> d           3.130  -6.172   4.263  0.00  0.00     0.050 A 
ATOM      9  C12 <0> d           3.693  -4.947   4.400  0.00  0.00     0.008 A 
ATOM     10  C11 <0> d           4.140  -4.284   3.272  0.00  0.00     0.017 A 
ENDBRANCH   5   6
BRANCH   5  11
ATOM     11  C14 <0> d           5.706  -5.006   0.291  0.00  0.00     0.010 A 
ATOM     12  S2  <0> d           5.997  -6.629  -0.394  0.00  0.00    -0.104 SA
ATOM     13  C17 <0> d           7.771  -6.516  -0.562  0.00  0.00     0.050 A 
ATOM     14  C16 <0> d           8.019  -5.271  -0.086  0.00  0.00     0.008 A 
ATOM     15  C15 <0> d           6.961  -4.497   0.351  0.00  0.00     0.017 A 
ENDBRANCH   5  11
ENDBRANCH   3   5
BRANCH   1  16
ATOM     16  C7  <0> d           1.227  -4.254  -1.432  0.00  0.00     0.087 A 
ATOM     17  C5  <0> d           0.039  -3.298  -1.561  0.00  0.00     0.035 A 
ATOM     18  C6  <0> d          -0.146  -4.661  -0.890  0.00  0.00     0.025 A 
BRANCH  17  19
ATOM     19  C3  <0> d           0.027  -2.079  -0.676  0.00  0.00    -0.017 A 
ATOM     20  C2  <0> d           0.008  -0.792  -1.094  0.00  0.00     0.120 A 
ATOM     21  N1  <0> d           0.002  -0.004   0.002  0.00  0.00    -0.285 N 
ATOM     22  C1  <0> d          -0.018   1.461   0.010  0.00  0.00     0.179 C 
ATOM     23  N2  <0> d           0.025  -0.834   1.130  0.00  0.00    -0.185 NA
ATOM     24  C4  <0> d           0.034  -2.078   0.723  0.00  0.00     0.147 A 
ENDBRANCH  17  19
ENDBRANCH   1  16
TORSDOF 5
ENDMDL
MODEL ZINC71921303
REMARK  6 active torsions:
REMARK  status: ('A' for Active; 'I' for Inactive)
REMARK    1  A    between atoms: C2_2  and  C3_3 
REMARK    2  A    between atoms: C2_2  and  N2_18 
REMARK    3  A    between atoms: C3_3  and  O2_5 
REMARK    4  A    between atoms: O2_5  and  C4_6 
REMARK    5  A    between atoms: C4_6  and  C5_7 
REMARK       I    between atoms: C5_7  and  N1_9 
REMARK    6  A    between atoms: N1_9  and  C6_10 
ROOT
ATOM      1  C4  <0> d          -3.559  -0.747   0.974  0.00  0.00     0.281 C 
ENDROOT
BRANCH   1   2
ATOM      2  O2  <0> d          -2.233  -0.218   1.029  0.00  0.00    -0.310 OA
BRANCH   2   3
ATOM      3  C3  <0> d          -1.412  -0.526   0.013  0.00  0.00     0.292 C 
ATOM      4  O1  <0> d          -1.806  -1.221  -0.893  0.00  0.00    -0.263 OA
BRANCH   3   5
ATOM      5  C2  <0> d           0.002  -0.004   0.002  0.00  0.00     0.317 C 
ATOM      6  C1  <0> d          -0.019   1.526   0.010  0.00  0.00     0.054 C 
BRANCH   5   7
ATOM      7  N2  <0> d           0.690  -0.478  -1.207  0.00  0.00     0.106 N 
ATOM      8  C17 <0> d           0.729  -1.947  -1.249  0.00  0.00     0.299 C 
ATOM      9  C16 <0> d           1.399  -2.397  -2.550  0.00  0.00     0.198 C 
ATOM     10  O4  <0> d           2.704  -1.818  -2.633  0.00  0.00    -0.388 OA
ATOM     11  C15 <0> d           2.703  -0.388  -2.595  0.00  0.00     0.198 C 
ATOM     12  C14 <0> d           2.046   0.082  -1.295  0.00  0.00     0.299 C 
ENDBRANCH   5   7
ENDBRANCH   3   5
ENDBRANCH   2   3
ENDBRANCH   1   2
BRANCH   1  13
ATOM     13  C5  <0> d          -4.329  -0.299   2.190  0.00  0.00     0.242 C 
ATOM     14  O3  <0> d          -3.795   0.403   3.022  0.00  0.00    -0.271 OA
ATOM     15  N1  <0> d          -5.612  -0.680   2.353  0.00  0.00    -0.355 N 
ATOM     16  H7  <0> d          -6.039  -1.242   1.688  0.00  0.00     0.162 HD
BRANCH  15  17
ATOM     17  C6  <0> d          -6.360  -0.245   3.535  0.00  0.00     0.084 C 
ATOM     18  C13 <0> d          -7.857  -0.247   3.220  0.00  0.00     0.025 C 
ATOM     19  C12 <0> d          -8.603   0.566   4.280  0.00  0.00     0.002 C 
ATOM     20  C11 <0> d          -7.838   1.861   4.562  0.00  0.00     0.000 C 
ATOM     21  C10 <0> d          -7.284   1.826   5.988  0.00  0.00     0.000 C 
ATOM     22  C9  <0> d          -6.063   0.905   6.037  0.00  0.00     0.000 C 
ATOM     23  C8  <0> d          -6.523  -0.553   6.009  0.00  0.00     0.002 C 
ATOM     24  C7  <0> d          -6.082  -1.203   4.696  0.00  0.00     0.025 C 
ENDBRANCH  15  17
ENDBRANCH   1  13
TORSDOF 6
ENDMDL
MODEL ZINC71926853
REMARK  5 active torsions:
REMARK  status: ('A' for Active; 'I' for Inactive)
REMARK    1  A    between atoms: C2_2  and  C3_3 
REMARK    2  A    between atoms: C2_2  and  O4_17 
REMARK       I    between atoms: C3_3  and  N1_5 
REMARK    3  A    between atoms: N1_5  and  C4_6 
REMARK    4  A    between atoms: O4_17  and  C12_18 
REMARK    5  A    between atoms: C16_22  and  C18_24 
ROOT
ATOM      1  C3  <0> d           0.851  -0.507   1.203  0.00  0.00     0.251 C 
ATOM      2  O1  <0> d           0.225  -1.154   2.015  0.00  0.00    -0.270 OA
ATOM      3  N1  <0> d           2.160  -0.258   1.404  0.00  0.00    -0.323 N 
ATOM      4  H5  <0> d           2.641   0.328   0.798  0.00  0.00     0.169 HD
ENDROOT
BRANCH   1   5
ATOM      5  C2  <0> d           0.165   0.019  -0.032  0.00  0.00     0.217 C 
ATOM      6  C1  <0> d           0.149   1.548   0.006  0.00  0.00     0.050 C 
BRANCH   5   7
ATOM      7  O4  <0> d          -1.177  -0.471  -0.076  0.00  0.00    -0.337 OA
BRANCH   7   8
ATOM      8  C12 <0> d          -1.764  -0.552  -1.299  0.00  0.00     0.070 A 
ATOM      9  C17 <0> d          -3.023  -1.121  -1.429  0.00  0.00     0.044 A 
ATOM     10  C16 <0> d          -3.620  -1.198  -2.672  0.00  0.00    -0.052 A 
ATOM     11  C15 <0> d          -2.959  -0.719  -3.788  0.00  0.00     0.007 A 
ATOM     12  C14 <0> d          -1.702  -0.156  -3.662  0.00  0.00     0.003 A 
ATOM     13  C13 <0> d          -1.104  -0.072  -2.420  0.00  0.00     0.037 A 
BRANCH  10  14
ATOM     14  C18 <0> d          -4.990  -1.810  -2.813  0.00  0.00     0.010 C 
ATOM     15  C19 <0> d          -5.953  -0.775  -3.397  0.00  0.00     0.015 C 
ATOM     16  C20 <0> d          -4.914  -3.020  -3.746  0.00  0.00     0.015 C 
ENDBRANCH  10  14
ENDBRANCH   7   8
ENDBRANCH   5   7
ENDBRANCH   1   5
BRANCH   3  17
ATOM     17  C4  <0> d           2.826  -0.844   2.489  0.00  0.00     0.059 A 
ATOM     18  C9  <0> d           3.845  -0.154   3.133  0.00  0.00     0.063 A 
ATOM     19  C8  <0> d           4.500  -0.731   4.206  0.00  0.00     0.065 A 
ATOM     20 Cl1  <0> d           4.293   1.435   2.596  0.00  0.00    -0.082 Cl
ATOM     21  C7  <0> d           4.149  -2.002   4.634  0.00  0.00     0.103 A 
ATOM     22  C6  <0> d           3.132  -2.696   3.988  0.00  0.00     0.104 A 
ATOM     23  O2  <0> d           4.813  -2.559   5.685  0.00  0.00    -0.346 OA
ATOM     24  C5  <0> d           2.472  -2.116   2.916  0.00  0.00     0.071 A 
ATOM     25  O3  <0> d           2.770  -3.943   4.398  0.00  0.00    -0.346 OA
ATOM     26  C11 <0> d           3.701  -4.642   5.231  0.00  0.00     0.202 C 
ATOM     27  C10 <0> d           4.187  -3.678   6.322  0.00  0.00     0.202 C 
ENDBRANCH   3  17
TORSDOF 5
ENDMDL
MODEL ZINC47182150
REMARK  3 active torsions:
REMARK  status: ('A' for Active; 'I' for Inactive)
REMARK    1  A    between atoms: C2_2  and  N1_3 
REMARK    2  A    between atoms: C4_5  and  N2_10 
REMARK       I    between atoms: N2_10  and  C8_11 
REMARK    3  A    between atoms: C8_11  and  C9_13 
ROOT
ATOM      1  N2  <0> d          -0.158  -1.364  -4.634  0.00  0.00    -0.320 N 
ATOM      2  C8  <0> d           0.126  -0.679  -5.760  0.00  0.00     0.280 C 
ATOM      3  O2  <0> d           1.086   0.068  -5.792  0.00  0.00    -0.265 OA
ATOM      4  H9  <0> d          -0.880  -2.012  -4.629  0.00  0.00     0.169 HD
ENDROOT
BRANCH   1   5
ATOM      5  C4  <0> d           0.592  -1.140  -3.469  0.00  0.00     0.051 A 
ATOM      6  C3  <0> d          -0.028  -0.750  -2.324  0.00  0.00     0.123 A 
ATOM      7  N1  <0> d           0.688  -0.531  -1.190  0.00  0.00    -0.323 N 
ATOM      8  C7  <0> d           2.025  -0.690  -1.177  0.00  0.00     0.247 A 
ATOM      9  C6  <0> d           2.699  -1.097  -2.342  0.00  0.00     0.077 A 
ATOM     10  O1  <0> d           2.654  -0.484  -0.151  0.00  0.00    -0.268 OA
ATOM     11  C5  <0> d           1.987  -1.319  -3.483  0.00  0.00     0.036 A 
BRANCH   7  12
ATOM     12  C2  <0> d          -0.002  -0.112   0.033  0.00  0.00     0.127 C 
ATOM     13  C1  <0> d          -0.075   1.415   0.079  0.00  0.00     0.027 C 
ENDBRANCH   7  12
ENDBRANCH   1   5
BRANCH   2  14
ATOM     14  C9  <0> d          -0.723  -0.835  -6.946  0.00  0.00     0.148 A 
ATOM     15  O3  <0> d          -1.811  -1.626  -7.043  0.00  0.00    -0.317 OA
ATOM     16  C12 <0> d          -2.335  -1.511  -8.271  0.00  0.00     0.143 A 
ATOM     17  C11 <0> d          -1.582  -0.647  -8.986  0.00  0.00     0.034 A 
ATOM     18  C10 <0> d          -0.547  -0.208  -8.146  0.00  0.00    -0.021 A 
ATOM     19  C13 <0> d           0.547   0.766  -8.500  0.00  0.00     0.051 C 
ENDBRANCH   2  14
TORSDOF 3
ENDMDL
MODEL ZINC52566879
REMARK  5 active torsions:
REMARK  status: ('A' for Active; 'I' for Inactive)
REMARK    1  A    between atoms: C3_3  and  C18_24 
REMARK    2  A    between atoms: C5_5  and  C7_7 
REMARK       I    between atoms: C7_7  and  N1_9 
REMARK    3  A    between atoms: N1_9  and  C8_10 
REMARK    4  A    between atoms: C12_14  and  C14_16 
REMARK    5  A    between atoms: C14_16  and  N2_17 
ROOT
ATOM      1  C18 <0> d           3.165   2.205  -1.842  0.00  0.00     0.162 C 
ATOM      2  C19 <0> d           4.236   2.460  -0.865  0.00  0.00     0.063 C 
ATOM      3  N4  <0> d           5.062   2.656  -0.111  0.00  0.00    -0.197 NA
ENDROOT
BRANCH   1   4
ATOM      4  C3  <0> d           2.059   1.422  -1.183  0.00  0.00    -0.044 A 
ATOM      5  C2  <0> d           1.018   2.087  -0.561  0.00  0.00     0.008 A 
ATOM      6  C1  <0> d          -0.002   1.375   0.046  0.00  0.00     0.002 A 
ATOM      7  C6  <0> d           0.015  -0.004   0.035  0.00  0.00     0.017 A 
ATOM      8  C5  <0> d           1.063  -0.682  -0.590  0.00  0.00     0.032 A 
ATOM      9  C4  <0> d           2.088   0.042  -1.201  0.00  0.00     0.025 A 
BRANCH   8  10
ATOM     10  C7  <0> d           1.087  -2.160  -0.606  0.00  0.00     0.256 C 
ATOM     11  O1  <0> d           2.000  -2.747  -1.152  0.00  0.00    -0.267 OA
ATOM     12  N1  <0> d           0.096  -2.856  -0.015  0.00  0.00    -0.323 N 
ATOM     13  H5  <0> d          -0.597  -2.390   0.478  0.00  0.00     0.169 HD
BRANCH  12  14
ATOM     14  C8  <0> d           0.066  -4.251  -0.113  0.00  0.00     0.035 A 
ATOM     15  C13 <0> d          -1.150  -4.916  -0.201  0.00  0.00     0.038 A 
ATOM     16  C12 <0> d          -1.175  -6.294  -0.304  0.00  0.00    -0.037 A 
ATOM     17  C11 <0> d           0.007  -7.010  -0.308  0.00  0.00     0.009 A 
ATOM     18  C10 <0> d           1.219  -6.350  -0.216  0.00  0.00     0.003 A 
ATOM     19  C9  <0> d           1.252  -4.973  -0.118  0.00  0.00     0.029 A 
BRANCH  16  20
ATOM     20  C14 <0> d          -2.494  -7.016  -0.406  0.00  0.00     0.175 C 
BRANCH  20  21
ATOM     21  N2  <0> d          -2.975  -7.348   0.937  0.00  0.00    -0.264 N 
ATOM     22  C17 <0> d          -3.755  -6.549   1.674  0.00  0.00     0.325 A 
ATOM     23  N3  <0> d          -4.059  -7.087   2.869  0.00  0.00    -0.334 N 
ATOM     24  O3  <0> d          -4.150  -5.461   1.303  0.00  0.00    -0.247 OA
ATOM     25  C16 <0> d          -3.386  -8.396   2.924  0.00  0.00     0.227 A 
ATOM     26  H14 <0> d          -4.610  -6.689   3.561  0.00  0.00     0.164 HD
ATOM     27  C15 <0> d          -2.680  -8.491   1.586  0.00  0.00     0.245 A 
ATOM     28  O2  <0> d          -1.994  -9.406   1.183  0.00  0.00    -0.271 OA
ENDBRANCH  20  21
ENDBRANCH  16  20
ENDBRANCH  12  14
ENDBRANCH   8  10
ENDBRANCH   1   4
TORSDOF 5
ENDMDL
MODEL ZINC72011079
REMARK  5 active torsions:
REMARK  status: ('A' for Active; 'I' for Inactive)
REMARK    1  A    between atoms: C2_2  and  C3_3 
REMARK    2  A    between atoms: C2_2  and  O2_12 
REMARK       I    between atoms: C3_3  and  N1_5 
REMARK    3  A    between atoms: N1_5  and  C5_7 
REMARK    4  A    between atoms: O2_12  and  C8_13 
REMARK    5  A    between atoms: C8_13  and  C9_14 
ROOT
ATOM      1  C3  <0> d           0.731  -0.503   1.223  0.00  0.00     0.254 C 
ATOM      2  O1  <0> d           0.135  -1.137   2.068  0.00  0.00    -0.270 OA
ATOM      3  N1  <0> d           2.045  -0.246   1.375  0.00  0.00    -0.299 N 
ATOM      4  C4  <0> d           2.765   0.519   0.354  0.00  0.00     0.161 C 
ENDROOT
BRANCH   1   5
ATOM      5  C2  <0> d           0.002  -0.004   0.002  0.00  0.00     0.210 C 
ATOM      6  C1  <0> d          -0.019   1.526   0.010  0.00  0.00     0.050 C 
BRANCH   5   7
ATOM      7  O2  <0> d          -1.339  -0.499   0.012  0.00  0.00    -0.368 OA
BRANCH   7   8
ATOM      8  C8  <0> d          -1.896  -0.693  -1.289  0.00  0.00     0.286 C 
BRANCH   8   9
ATOM      9  C9  <0> d          -3.326  -1.221  -1.157  0.00  0.00     0.408 C 
ATOM     10  F1  <0> d          -4.102  -0.296  -0.451  0.00  0.00    -0.169 F 
ATOM     11  F2  <0> d          -3.872  -1.411  -2.431  0.00  0.00    -0.169 F 
ATOM     12  F3  <0> d          -3.311  -2.440  -0.470  0.00  0.00    -0.169 F 
ENDBRANCH   8   9
ENDBRANCH   7   8
ENDBRANCH   5   7
ENDBRANCH   1   5
BRANCH   3  13
ATOM     13  C5  <0> d           2.717  -0.706   2.502  0.00  0.00     0.174 A 
ATOM     14  S1  <0> d           4.340  -0.510   2.904  0.00  0.00    -0.062 SA
ATOM     15  C7  <0> d           4.317  -1.390   4.457  0.00  0.00     0.072 A 
ATOM     16  C6  <0> d           3.017  -1.770   4.513  0.00  0.00     0.126 A 
ATOM     17  N2  <0> d           2.241  -1.406   3.508  0.00  0.00    -0.236 NA
ENDBRANCH   3  13
TORSDOF 5
ENDMDL
MODEL ZINC72017588
REMARK  5 active torsions:
REMARK  status: ('A' for Active; 'I' for Inactive)
REMARK    1  A    between atoms: C4_4  and  N1_7 
REMARK    2  A    between atoms: C9_10  and  N2_13 
REMARK       I    between atoms: N2_13  and  C12_14 
REMARK    3  A    between atoms: C12_14  and  C13_16 
REMARK    4  A    between atoms: N3_21  and  S1_22 
REMARK    5  A    between atoms: S1_22  and  C18_25 
ROOT
ATOM      1  N2  <0> d           6.738  -1.894   2.737  0.00  0.00    -0.355 N 
ATOM      2  C12 <0> d           7.429  -2.989   2.365  0.00  0.00     0.241 C 
ATOM      3  O1  <0> d           7.243  -3.481   1.272  0.00  0.00    -0.271 OA
ATOM      4  H16 <0> d           6.887  -1.500   3.611  0.00  0.00     0.162 HD
ENDROOT
BRANCH   2   5
ATOM      5  C13 <0> d           8.434  -3.602   3.305  0.00  0.00     0.188 C 
ATOM      6  N3  <0> d           9.790  -3.197   2.910  0.00  0.00    -0.293 N 
ATOM      7  C17 <0> d          10.938  -3.802   3.600  0.00  0.00     0.136 C 
ATOM      8  C16 <0> d          10.809  -5.327   3.532  0.00  0.00     0.021 C 
ATOM      9  C15 <0> d           9.447  -5.746   4.090  0.00  0.00     0.004 C 
ATOM     10  C14 <0> d           8.334  -5.129   3.240  0.00  0.00     0.036 C 
BRANCH   6  11
ATOM     11  S1  <0> d          10.021  -2.083   1.706  0.00  0.00     0.261 S 
ATOM     12  O2  <0> d           8.769  -1.443   1.500  0.00  0.00    -0.200 OA
ATOM     13  O3  <0> d          11.199  -1.362   2.040  0.00  0.00    -0.200 OA
BRANCH  11  14
ATOM     14  C18 <0> d          10.379  -2.977   0.231  0.00  0.00     0.079 A 
ATOM     15  C23 <0> d           9.351  -3.367  -0.608  0.00  0.00     0.025 A 
ATOM     16  C22 <0> d           9.632  -4.064  -1.768  0.00  0.00     0.002 A 
ATOM     17  C21 <0> d          10.940  -4.380  -2.084  0.00  0.00     0.000 A 
ATOM     18  C20 <0> d          11.967  -3.995  -1.243  0.00  0.00     0.002 A 
ATOM     19  C19 <0> d          11.687  -3.294  -0.085  0.00  0.00     0.025 A 
ENDBRANCH  11  14
ENDBRANCH   6  11
ENDBRANCH   2   5
BRANCH   1  20
ATOM     20  C9  <0> d           5.761  -1.298   1.823  0.00  0.00     0.087 C 
ATOM     21  C8  <0> d           5.586   0.185   2.159  0.00  0.00     0.045 C 
ATOM     22  C7  <0> d           4.590   0.812   1.179  0.00  0.00     0.125 C 
ATOM     23  N1  <0> d           3.343   0.036   1.209  0.00  0.00    -0.381 N 
ATOM     24  C11 <0> d           3.410  -1.416   0.994  0.00  0.00     0.125 C 
ATOM     25  C10 <0> d           4.418  -2.018   1.971  0.00  0.00     0.045 C 
BRANCH  23  26
ATOM     26  C4  <0> d           2.118   0.665   1.443  0.00  0.00     0.030 A 
ATOM     27  C3  <0> d           0.934  -0.054   1.332  0.00  0.00     0.029 A 
ATOM     28  C2  <0> d          -0.275   0.571   1.565  0.00  0.00     0.002 A 
ATOM     29  C1  <0> d          -0.308   1.910   1.908  0.00  0.00     0.000 A 
ATOM     30  C6  <0> d           0.868   2.628   2.020  0.00  0.00     0.002 A 
ATOM     31  C5  <0> d           2.081   2.010   1.788  0.00  0.00     0.029 A 
ENDBRANCH  23  26
ENDBRANCH   1  20
TORSDOF 5
ENDMDL
MODEL ZINC57258831
REMARK  5 active torsions:
REMARK  status: ('A' for Active; 'I' for Inactive)
REMARK    1  A    between atoms: C2_2  and  C3_3 
REMARK    2  A    between atoms: C3_3  and  C4_4 
REMARK    3  A    between atoms: C4_4  and  N1_5 
REMARK    4  A    between atoms: N1_5  and  C5_6 
REMARK       I    between atoms: N1_5  and  C9_13 
REMARK    5  A    between atoms: C9_13  and  C10_15 
ROOT
ATOM      1  N1  <0> d           1.586  -2.808   2.422  0.00  0.00    -0.341 N 
ATOM      2  C9  <0> d           2.923  -2.640   2.430  0.00  0.00     0.270 C 
ATOM      3  O3  <0> d           3.538  -2.705   3.478  0.00  0.00    -0.266 OA
ENDROOT
BRANCH   2   4
ATOM      4  C10 <0> d           3.639  -2.379   1.172  0.00  0.00     0.102 A 
ATOM      5  N2  <0> d           3.045  -2.122  -0.049  0.00  0.00    -0.351 N 
ATOM      6  C17 <0> d           4.030  -1.925  -0.987  0.00  0.00     0.043 A 
ATOM      7  H2  <0> d           2.090  -2.084  -0.215  0.00  0.00     0.166 HD
ATOM      8  C12 <0> d           5.269  -2.073  -0.334  0.00  0.00    -0.005 A 
ATOM      9  C16 <0> d           4.004  -1.635  -2.349  0.00  0.00     0.032 A 
ATOM     10  C11 <0> d           4.989  -2.358   1.024  0.00  0.00     0.049 A 
ATOM     11  C13 <0> d           6.458  -1.927  -1.061  0.00  0.00     0.037 A 
ATOM     12  C14 <0> d           6.408  -1.644  -2.396  0.00  0.00     0.035 A 
ATOM     13  C15 <0> d           5.186  -1.497  -3.042  0.00  0.00     0.026 A 
ATOM     14 Cl1  <0> d           7.883  -1.464  -3.293  0.00  0.00    -0.084 Cl
ENDBRANCH   2   4
BRANCH   1  15
ATOM     15  C4  <0> d           0.862  -2.868   1.150  0.00  0.00     0.127 C 
BRANCH  15  16
ATOM     16  C3  <0> d           0.411  -1.461   0.753  0.00  0.00     0.020 C 
BRANCH  16  17
ATOM     17  C2  <0> d          -0.344  -1.524  -0.576  0.00  0.00    -0.003 C 
ATOM     18  C1  <0> d          -0.796  -0.117  -0.973  0.00  0.00     0.005 C 
ENDBRANCH  16  17
ENDBRANCH  15  16
ENDBRANCH   1  15
BRANCH   1  19
ATOM     19  C5  <0> d           0.855  -2.930   3.686  0.00  0.00     0.102 C 
ATOM     20  C8  <0> d           1.154  -1.697   4.573  0.00  0.00     0.165 C 
ATOM     21  S1  <0> d           1.058  -2.389   6.274  0.00  0.00     0.146 S 
ATOM     22  C7  <0> d           0.754  -4.160   5.866  0.00  0.00     0.142 C 
ATOM     23  O1  <0> d           2.330  -2.269   6.894  0.00  0.00    -0.228 OA
ATOM     24  O2  <0> d          -0.090  -1.861   6.925  0.00  0.00    -0.228 OA
ATOM     25  C6  <0> d           1.297  -4.213   4.409  0.00  0.00     0.041 C 
ENDBRANCH   1  19
TORSDOF 5
ENDMDL
MODEL ZINC07151473
REMARK  6 active torsions:
REMARK  status: ('A' for Active; 'I' for Inactive)
REMARK    1  A    between atoms: C2_3  and  C16_22 
REMARK    2  A    between atoms: C3_6  and  S1_7 
REMARK    3  A    between atoms: S1_7  and  C4_8 
REMARK    4  A    between atoms: C4_8  and  C5_9 
REMARK    5  A    between atoms: C4_8  and  C11_15 
REMARK       I    between atoms: C11_15  and  N4_17 
REMARK    6  A    between atoms: C21_27  and  O2_28 
ROOT
ATOM      1  S1  <0> d          -0.325  -5.836   0.158  0.00  0.00    -0.071 SA
ENDROOT
BRANCH   1   2
ATOM      2  C3  <0> d           0.521  -4.291   0.126  0.00  0.00     0.192 A 
ATOM      3  N1  <0> d          -0.048  -3.053   0.225  0.00  0.00    -0.311 N 
ATOM      4  C1  <0> d          -1.472  -2.743   0.378  0.00  0.00     0.160 C 
ATOM      5  C2  <0> d           0.994  -2.158   0.148  0.00  0.00     0.166 A 
ATOM      6  N2  <0> d           2.096  -2.860   0.021  0.00  0.00    -0.128 NA
ATOM      7  N3  <0> d           1.818  -4.114   0.007  0.00  0.00    -0.122 NA
BRANCH   5   8
ATOM      8  C16 <0> d           0.892  -0.684   0.206  0.00  0.00     0.045 A 
ATOM      9  C21 <0> d           1.748   0.048   1.037  0.00  0.00     0.082 A 
ATOM     10  C20 <0> d           1.646   1.429   1.084  0.00  0.00     0.038 A 
ATOM     11  C19 <0> d           0.702   2.080   0.312  0.00  0.00     0.003 A 
ATOM     12  C18 <0> d          -0.147   1.359  -0.511  0.00  0.00     0.001 A 
ATOM     13  C17 <0> d          -0.057  -0.016  -0.568  0.00  0.00     0.018 A 
BRANCH   9  14
ATOM     14  O2  <0> d           2.675  -0.593   1.795  0.00  0.00    -0.355 OA
ATOM     15  C22 <0> d           3.514   0.220   2.619  0.00  0.00     0.210 C 
ENDBRANCH   9  14
ENDBRANCH   5   8
ENDBRANCH   1   2
BRANCH   1  16
ATOM     16  C4  <0> d           1.079  -6.966  -0.013  0.00  0.00     0.180 C 
BRANCH  16  17
ATOM     17  C5  <0> d           0.573  -8.380  -0.135  0.00  0.00    -0.035 A 
ATOM     18  C10 <0> d           0.937  -9.154  -1.221  0.00  0.00     0.009 A 
ATOM     19  C9  <0> d           0.473 -10.451  -1.332  0.00  0.00     0.001 A 
ATOM     20  C8  <0> d          -0.355 -10.975  -0.356  0.00  0.00     0.000 A 
ATOM     21  C7  <0> d          -0.718 -10.202   0.730  0.00  0.00     0.001 A 
ATOM     22  C6  <0> d          -0.250  -8.906   0.844  0.00  0.00     0.009 A 
ENDBRANCH  16  17
BRANCH  16  23
ATOM     23  C11 <0> d           1.966  -6.852   1.199  0.00  0.00     0.238 C 
ATOM     24  O1  <0> d           1.502  -6.485   2.258  0.00  0.00    -0.272 OA
ATOM     25  N4  <0> d           3.276  -7.158   1.107  0.00  0.00    -0.351 N 
ATOM     26  C15 <0> d           4.274  -6.995   2.180  0.00  0.00     0.126 C 
ATOM     27  C12 <0> d           3.945  -7.714  -0.079  0.00  0.00     0.126 C 
ATOM     28  C14 <0> d           5.394  -8.009   1.837  0.00  0.00     0.021 C 
ATOM     29  C13 <0> d           5.429  -7.922   0.288  0.00  0.00     0.021 C 
ENDBRANCH  16  23
ENDBRANCH   1  16
TORSDOF 6
ENDMDL
MODEL ZINC72049484
REMARK  4 active torsions:
REMARK  status: ('A' for Active; 'I' for Inactive)
REMARK       I    between atoms: N1_6  and  C7_8 
REMARK       I    between atoms: C7_8  and  N2_10 
REMARK    1  A    between atoms: N2_10  and  C8_11 
REMARK    2  A    between atoms: C8_11  and  C9_12 
REMARK    3  A    between atoms: N3_15  and  C14_18 
REMARK    4  A    between atoms: C14_18  and  C15_19 
ROOT
ATOM      1  C9  <0> d           0.070  -6.425   2.677  0.00  0.00     0.007 C 
ATOM      2  C10 <0> d          -0.782  -6.712   1.437  0.00  0.00     0.034 C 
ATOM      3  C11 <0> d          -0.683  -8.199   1.091  0.00  0.00     0.235 C 
ATOM      4  N3  <0> d          -1.172  -9.001   2.219  0.00  0.00    -0.067 N 
ATOM      5  C12 <0> d          -0.316  -8.785   3.392  0.00  0.00     0.235 C 
ATOM      6  C13 <0> d          -0.401  -7.320   3.826  0.00  0.00     0.034 C 
ATOM      7  H30 <0> d          -2.118  -8.728   2.439  0.00  0.00     0.280 HD
ENDROOT
BRANCH   1   8
ATOM      8  C8  <0> d          -0.087  -4.956   3.076  0.00  0.00     0.129 C 
BRANCH   8   9
ATOM      9  N2  <0> d           0.473  -4.102   2.026  0.00  0.00    -0.343 N 
ATOM     10  C7  <0> d           0.447  -2.761   2.161  0.00  0.00     0.318 C 
ATOM     11  N1  <0> d           0.870  -1.974   1.153  0.00  0.00    -0.334 N 
ATOM     12  O1  <0> d           0.041  -2.263   3.193  0.00  0.00    -0.247 OA
ATOM     13  C5  <0> d           0.741  -0.512   1.240  0.00  0.00     0.127 C 
ATOM     14  C6  <0> d           1.469  -2.560  -0.054  0.00  0.00     0.131 C 
ATOM     15  C4  <0> d           2.112   0.120   0.984  0.00  0.00     0.020 C 
ATOM     16  C3  <0> d           2.660  -0.385  -0.353  0.00  0.00     0.007 C 
ATOM     17  C2  <0> d           2.832  -1.904  -0.296  0.00  0.00    -0.000 C 
ATOM     18  C1  <0> d           3.411  -2.403  -1.621  0.00  0.00     0.011 C 
ATOM     19  H13 <0> d           0.864  -4.502   1.232  0.00  0.00     0.164 HD
ENDBRANCH   8   9
ENDBRANCH   1   8
BRANCH   4  20
ATOM     20  C14 <0> d          -1.149 -10.424   1.853  0.00  0.00     0.280 C 
BRANCH  20  21
ATOM     21  C15 <0> d          -1.764 -11.238   2.962  0.00  0.00     0.008 A 
ATOM     22  S1  <0> d          -0.977 -11.978   4.383  0.00  0.00    -0.105 SA
ATOM     23  C18 <0> d          -2.427 -12.717   5.117  0.00  0.00     0.050 A 
ATOM     24  C17 <0> d          -3.397 -12.361   4.240  0.00  0.00     0.008 A 
ATOM     25  C16 <0> d          -3.058 -11.603   3.135  0.00  0.00     0.017 A 
ENDBRANCH  20  21
ENDBRANCH   4  20
TORSDOF 4
ENDMDL
MODEL ZINC72078747
REMARK  4 active torsions:
REMARK  status: ('A' for Active; 'I' for Inactive)
REMARK    1  A    between atoms: C2_2  and  C3_3 
REMARK    2  A    between atoms: C5_6  and  C6_8 
REMARK    3  A    between atoms: C6_8  and  C7_9 
REMARK    4  A    between atoms: C7_9  and  N2_10 
REMARK       I    between atoms: N2_10  and  C8_11 
REMARK       I    between atoms: C8_11  and  N3_13 
ROOT
ATOM      1  N2  <0> d          -0.783  -3.316   6.125  0.00  0.00    -0.343 N 
ATOM      2  C8  <0> d          -1.211  -4.566   6.389  0.00  0.00     0.318 C 
ATOM      3  O1  <0> d          -1.230  -5.402   5.506  0.00  0.00    -0.247 OA
ATOM      4  N3  <0> d          -1.619  -4.890   7.633  0.00  0.00    -0.329 N 
ATOM      5  C9  <0> d          -1.981  -6.275   7.974  0.00  0.00     0.159 C 
ATOM      6  C10 <0> d          -1.225  -6.673   9.247  0.00  0.00     0.136 C 
ATOM      7  O2  <0> d          -1.455  -5.688  10.258  0.00  0.00    -0.378 OA
ATOM      8  C11 <0> d          -0.970  -4.385   9.927  0.00  0.00     0.136 C 
ATOM      9  C12 <0> d          -1.708  -3.871   8.690  0.00  0.00     0.159 C 
ATOM     10  C13 <0> d          -1.213  -3.435  11.101  0.00  0.00     0.041 C 
ATOM     11  C14 <0> d           0.273  -6.758   8.946  0.00  0.00     0.041 C 
ATOM     12  H12 <0> d          -0.837  -2.630   6.809  0.00  0.00     0.164 HD
ENDROOT
BRANCH   1  13
ATOM     13  C7  <0> d          -0.236  -2.993   4.805  0.00  0.00     0.131 C 
BRANCH  13  14
ATOM     14  C6  <0> d           0.173  -1.519   4.769  0.00  0.00     0.086 C 
BRANCH  14  15
ATOM     15  C5  <0> d           0.735  -1.186   3.411  0.00  0.00     0.077 A 
ATOM     16  S1  <0> d           2.333  -1.281   2.889  0.00  0.00    -0.078 SA
ATOM     17  C4  <0> d           2.077  -0.718   1.214  0.00  0.00     0.005 A 
ATOM     18  C3  <0> d           0.736  -0.505   1.224  0.00  0.00     0.048 A 
ATOM     19  C15 <0> d           3.073  -0.531   0.099  0.00  0.00     0.058 C 
ATOM     20  N1  <0> d           0.101  -0.749   2.352  0.00  0.00    -0.249 NA
BRANCH  18  21
ATOM     21  C2  <0> d           0.009  -0.007   0.001  0.00  0.00     0.056 C 
ATOM     22  C1  <0> d          -0.013   1.523   0.009  0.00  0.00     0.011 C 
ENDBRANCH  18  21
ENDBRANCH  14  15
ENDBRANCH  13  14
ENDBRANCH   1  13
TORSDOF 4
ENDMDL
MODEL ZINC71477559
REMARK  1 active torsions:
REMARK  status: ('A' for Active; 'I' for Inactive)
REMARK    1  A    between atoms: C4_4  and  O1_13 
ROOT
ATOM      1  C1  <0> d          -0.054   1.449  -0.178  0.00  0.00     0.032 C 
ATOM      2  C2  <0> d          -0.109  -0.077  -0.268  0.00  0.00     0.080 C 
ATOM      3  C3  <0> d          -1.562  -0.553  -0.135  0.00  0.00     0.061 C 
ATOM      4  C4  <0> d          -2.137  -0.022   1.177  0.00  0.00     0.158 C 
ATOM      5  C5  <0> d          -1.222  -0.353   2.327  0.00  0.00    -0.003 A 
ATOM      6  C6  <0> d          -1.736  -0.355   3.613  0.00  0.00     0.013 A 
ATOM      7  C7  <0> d          -0.923  -0.652   4.688  0.00  0.00     0.024 A 
ATOM      8  C8  <0> d           0.414  -0.950   4.487  0.00  0.00     0.036 A 
ATOM      9  C9  <0> d           0.934  -0.951   3.208  0.00  0.00     0.053 A 
ATOM     10  C10 <0> d           0.116  -0.654   2.124  0.00  0.00     0.038 A 
ATOM     11  N1  <0> d           0.661  -0.669   0.834  0.00  0.00    -0.385 N 
ATOM     12 Cl1  <0> d           1.436  -1.321   5.841  0.00  0.00    -0.084 Cl
ATOM     13  H11 <0> d           1.532  -1.063   0.670  0.00  0.00     0.160 HD
ENDROOT
BRANCH   4  14
ATOM     14  O1  <0> d          -3.415  -0.619   1.409  0.00  0.00    -0.386 OA
ATOM     15  C11 <0> d          -4.504   0.091   0.816  0.00  0.00     0.202 C 
ENDBRANCH   4  14
TORSDOF 1
ENDMDL
MODEL ZINC72152327
REMARK  4 active torsions:
REMARK  status: ('A' for Active; 'I' for Inactive)
REMARK    1  A    between atoms: C3_4  and  C5_7 
REMARK    2  A    between atoms: C6_9  and  C8_12 
REMARK    3  A    between atoms: C8_12  and  N4_13 
REMARK       I    between atoms: N4_13  and  C9_14 
REMARK    4  A    between atoms: C9_14  and  C10_16 
ROOT
ATOM      1  N4  <0> d           7.704  -0.060  -1.437  0.00  0.00    -0.351 N 
ATOM      2  C9  <0> d           8.916   0.476  -1.686  0.00  0.00     0.255 C 
ATOM      3  O1  <0> d           9.682   0.699  -0.769  0.00  0.00    -0.268 OA
ATOM      4  H7  <0> d           7.093  -0.238  -2.168  0.00  0.00     0.163 HD
ENDROOT
BRANCH   1   5
ATOM      5  C8  <0> d           7.311  -0.373  -0.061  0.00  0.00     0.182 C 
BRANCH   5   6
ATOM      6  C6  <0> d           5.922  -0.957  -0.056  0.00  0.00     0.060 A 
ATOM      7  N3  <0> d           4.877  -0.166  -0.041  0.00  0.00    -0.241 NA
ATOM      8  C5  <0> d           3.644  -0.653  -0.037  0.00  0.00     0.128 A 
ATOM      9  S1  <0> d           3.965  -2.412  -0.049  0.00  0.00    -0.078 SA
ATOM     10  C7  <0> d           5.750  -2.307  -0.067  0.00  0.00     0.080 A 
BRANCH   8  11
ATOM     11  C3  <0> d           2.352   0.065  -0.020  0.00  0.00     0.109 A 
ATOM     12  N1  <0> d           2.327   1.396  -0.013  0.00  0.00    -0.255 NA
ATOM     13  C2  <0> d           1.171   2.032   0.002  0.00  0.00     0.136 A 
ATOM     14  C1  <0> d          -0.016   1.318   0.009  0.00  0.00     0.135 A 
ATOM     15  N2  <0> d           0.002  -0.004   0.002  0.00  0.00    -0.269 NA
ATOM     16  C4  <0> d           1.153  -0.650  -0.013  0.00  0.00     0.150 A 
ENDBRANCH   8  11
ENDBRANCH   5   6
ENDBRANCH   1   5
BRANCH   2  17
ATOM     17  C10 <0> d           9.311   0.791  -3.071  0.00  0.00     0.075 A 
ATOM     18  C12 <0> d          10.506   1.337  -3.475  0.00  0.00     0.048 A 
ATOM     19  N6  <0> d          10.466   1.462  -4.815  0.00  0.00    -0.273 N 
ATOM     20  C13 <0> d          11.678   1.735  -2.613  0.00  0.00     0.060 C 
ATOM     21  N5  <0> d           9.228   0.997  -5.263  0.00  0.00    -0.184 NA
ATOM     22  C16 <0> d          11.558   2.006  -5.630  0.00  0.00     0.151 C 
ATOM     23  C11 <0> d           8.530   0.595  -4.234  0.00  0.00     0.158 A 
ATOM     24  C15 <0> d          12.511   2.790  -4.719  0.00  0.00     0.022 C 
ATOM     25  C14 <0> d          12.901   1.918  -3.522  0.00  0.00     0.008 C 
ENDBRANCH   2  17
TORSDOF 4
ENDMDL
MODEL ZINC72163237
REMARK  7 active torsions:
REMARK  status: ('A' for Active; 'I' for Inactive)
REMARK    1  A    between atoms: C2_2  and  N1_3 
REMARK       I    between atoms: N1_3  and  C4_5 
REMARK    2  A    between atoms: C4_5  and  C5_7 
REMARK    3  A    between atoms: C5_7  and  N2_8 
REMARK    4  A    between atoms: C9_12  and  C11_14 
REMARK    5  A    between atoms: C11_14  and  C12_15 
REMARK    6  A    between atoms: C12_15  and  C13_16 
REMARK    7  A    between atoms: C18_21  and  C19_22 
ROOT
ATOM      1  N2  <0> d           4.200  -1.337   2.055  0.00  0.00    -0.062 N 
ATOM      2  C6  <0> d           4.770  -0.016   1.766  0.00  0.00     0.235 C 
ATOM      3  C7  <0> d           6.240  -0.167   1.366  0.00  0.00     0.028 C 
ATOM      4  C8  <0> d           7.012  -0.817   2.518  0.00  0.00     0.008 C 
ATOM      5  C9  <0> d           6.363  -2.160   2.861  0.00  0.00     0.012 C 
ATOM      6  C10 <0> d           4.889  -1.935   3.205  0.00  0.00     0.240 C 
ATOM      7  H28 <0> d           4.312  -1.934   1.250  0.00  0.00     0.280 HD
ENDROOT
BRANCH   5   8
ATOM      8  C11 <0> d           7.079  -2.783   4.061  0.00  0.00     0.011 C 
BRANCH   8   9
ATOM      9  C12 <0> d           8.522  -3.117   3.677  0.00  0.00     0.040 C 
BRANCH   9  10
ATOM     10  C13 <0> d           9.228  -3.730   4.859  0.00  0.00    -0.043 A 
ATOM     11  C18 <0> d           9.118  -5.086   5.103  0.00  0.00     0.054 A 
ATOM     12  C17 <0> d           9.769  -5.648   6.185  0.00  0.00     0.017 A 
ATOM     13  C16 <0> d          10.522  -4.853   7.028  0.00  0.00     0.001 A 
ATOM     14  C15 <0> d          10.628  -3.496   6.787  0.00  0.00     0.001 A 
ATOM     15  C14 <0> d           9.980  -2.934   5.703  0.00  0.00     0.008 A 
BRANCH  11  16
ATOM     16  C19 <0> d           8.293  -5.952   4.186  0.00  0.00     0.418 C 
ATOM     17  F1  <0> d           8.334  -7.276   4.634  0.00  0.00    -0.166 F 
ATOM     18  F2  <0> d           6.969  -5.500   4.185  0.00  0.00    -0.166 F 
ATOM     19  F3  <0> d           8.810  -5.882   2.888  0.00  0.00    -0.166 F 
ENDBRANCH  11  16
ENDBRANCH   9  10
ENDBRANCH   8   9
ENDBRANCH   5   8
BRANCH   1  20
ATOM     20  C5  <0> d           2.771  -1.195   2.363  0.00  0.00     0.337 C 
BRANCH  20  21
ATOM     21  C4  <0> d           2.042  -0.696   1.142  0.00  0.00     0.245 C 
ATOM     22  N1  <0> d           0.711  -0.489   1.189  0.00  0.00    -0.355 N 
ATOM     23  C3  <0> d          -0.028  -0.750   2.427  0.00  0.00     0.152 C 
ATOM     24  O1  <0> d           2.653  -0.480   0.117  0.00  0.00    -0.272 OA
BRANCH  22  25
ATOM     25  C2  <0> d           0.002  -0.004   0.002  0.00  0.00     0.120 C 
ATOM     26  C1  <0> d          -0.019   1.526   0.010  0.00  0.00     0.026 C 
ENDBRANCH  22  25
ENDBRANCH  20  21
ENDBRANCH   1  20
TORSDOF 7
ENDMDL
MODEL ZINC72174293
REMARK  4 active torsions:
REMARK  status: ('A' for Active; 'I' for Inactive)
REMARK    1  A    between atoms: C3_3  and  C7_8 
REMARK    2  A    between atoms: C7_8  and  C12_14 
REMARK    3  A    between atoms: C12_14  and  N1_15 
REMARK    4  A    between atoms: N1_15  and  C13_16 
ROOT
ATOM      1  C7  <0> d           3.657   2.166  -0.004  0.00  0.00     0.007 C 
ATOM      2  C8  <0> d           3.674   2.933  -1.330  0.00  0.00     0.042 C 
ATOM      3  C9  <0> d           4.987   3.712  -1.443  0.00  0.00     0.168 C 
ATOM      4  O1  <0> d           6.087   2.804  -1.345  0.00  0.00    -0.391 OA
ATOM      5  C10 <0> d           6.149   2.094  -0.107  0.00  0.00     0.168 C 
ATOM      6  C11 <0> d           4.883   1.250   0.059  0.00  0.00     0.042 C 
ENDROOT
BRANCH   1   7
ATOM      7  C3  <0> d           2.402   1.335   0.081  0.00  0.00    -0.045 A 
ATOM      8  C2  <0> d           1.438   1.437  -0.904  0.00  0.00     0.008 A 
ATOM      9  C1  <0> d           0.286   0.676  -0.827  0.00  0.00     0.004 A 
ATOM     10  C6  <0> d           0.098  -0.188   0.235  0.00  0.00     0.042 A 
ATOM     11  C5  <0> d           1.064  -0.291   1.223  0.00  0.00     0.117 A 
ATOM     12  C4  <0> d           2.216   0.472   1.144  0.00  0.00     0.050 A 
ATOM     13  F1  <0> d           0.881  -1.136   2.261  0.00  0.00    -0.206 F 
ENDBRANCH   1   7
BRANCH   1  14
ATOM     14  C12 <0> d           3.696   3.155   1.162  0.00  0.00     0.136 C 
BRANCH  14  15
ATOM     15  N1  <0> d           2.506   4.008   1.119  0.00  0.00    -0.374 N 
ATOM     16  H16 <0> d           1.821   3.852   0.450  0.00  0.00     0.161 HD
BRANCH  15  17
ATOM     17  C13 <0> d           2.358   5.042   2.037  0.00  0.00     0.125 A 
ATOM     18  N3  <0> d           1.280   5.803   1.986  0.00  0.00    -0.213 NA
ATOM     19  C19 <0> d           1.093   6.800   2.844  0.00  0.00     0.140 A 
ATOM     20  C16 <0> d           2.062   7.066   3.827  0.00  0.00     0.011 A 
ATOM     21  N2  <0> d           0.086   7.719   3.012  0.00  0.00    -0.350 N 
ATOM     22  C15 <0> d           3.214   6.275   3.895  0.00  0.00     0.019 A 
ATOM     23  C17 <0> d           1.564   8.210   4.594  0.00  0.00     0.032 A 
ATOM     24  C14 <0> d           3.355   5.257   2.989  0.00  0.00     0.051 A 
ATOM     25  C18 <0> d           0.383   8.553   4.059  0.00  0.00     0.090 A 
ATOM     26  H1  <0> d          -0.716   7.771   2.469  0.00  0.00     0.166 HD
ENDBRANCH  15  17
ENDBRANCH  14  15
ENDBRANCH   1  14
TORSDOF 4
ENDMDL
MODEL ZINC72191713
REMARK  3 active torsions:
REMARK  status: ('A' for Active; 'I' for Inactive)
REMARK    1  A    between atoms: C2_2  and  C4_4 
REMARK    2  A    between atoms: C6_7  and  C8_10 
REMARK    3  A    between atoms: C10_13  and  N4_15 
ROOT
ATOM      1  C4  <0> d          -1.412  -0.526   0.013  0.00  0.00     0.128 A 
ATOM      2  N1  <0> d          -2.202  -0.206   1.019  0.00  0.00    -0.244 NA
ATOM      3  C5  <0> d          -3.449  -0.642   1.069  0.00  0.00     0.134 A 
ATOM      4  C6  <0> d          -3.925  -1.453   0.032  0.00  0.00     0.035 A 
ATOM      5  C7  <0> d          -3.050  -1.766  -1.015  0.00  0.00     0.134 A 
ATOM      6  N2  <0> d          -1.820  -1.282  -0.987  0.00  0.00    -0.244 NA
ENDROOT
BRANCH   4   7
ATOM      7  C8  <0> d          -5.311  -1.965   0.043  0.00  0.00     0.112 A 
ATOM      8  S1  <0> d          -6.144  -3.005  -1.150  0.00  0.00    -0.051 SA
ATOM      9  C10 <0> d          -7.720  -3.082  -0.309  0.00  0.00     0.087 A 
ATOM     10  C9  <0> d          -7.460  -2.307   0.787  0.00  0.00     0.154 A 
ATOM     11  N3  <0> d          -6.270  -1.771   0.935  0.00  0.00    -0.250 NA
BRANCH   9  12
ATOM     12  N4  <0> d          -8.892  -3.745  -0.672  0.00  0.00    -0.392 N 
ATOM     13  H11 <0> d          -9.677  -3.688  -0.106  0.00  0.00     0.156 HD
ATOM     14  H12 <0> d          -8.922  -4.263  -1.492  0.00  0.00     0.156 HD
ENDBRANCH   9  12
ENDBRANCH   4   7
BRANCH   1  15
ATOM     15  C2  <0> d           0.002  -0.004   0.002  0.00  0.00     0.049 C 
ATOM     16  C1  <0> d          -0.019   1.526   0.010  0.00  0.00     0.018 C 
ATOM     17  C3  <0> d           0.742  -0.511   1.242  0.00  0.00     0.018 C 
ENDBRANCH   1  15
TORSDOF 3
ENDMDL
MODEL ZINC72198501
REMARK  7 active torsions:
REMARK  status: ('A' for Active; 'I' for Inactive)
REMARK    1  A    between atoms: N1_2  and  C3_4 
REMARK    2  A    between atoms: C3_4  and  C4_5 
REMARK    3  A    between atoms: C6_7  and  C11_13 
REMARK    4  A    between atoms: C9_10  and  O1_11 
REMARK    5  A    between atoms: C11_13  and  C12_14 
REMARK    6  A    between atoms: C11_13  and  N2_16 
REMARK    7  A    between atoms: C12_14  and  O2_15 
ROOT
ATOM      1  C4  <0> d           2.019  -0.072  -1.014  0.00  0.00     0.001 A 
ATOM      2  C5  <0> d           3.043  -0.983  -0.839  0.00  0.00     0.021 A 
ATOM      3  C6  <0> d           4.345  -0.542  -0.690  0.00  0.00    -0.025 A 
ATOM      4  C7  <0> d           4.626   0.812  -0.717  0.00  0.00     0.012 A 
ATOM      5  C8  <0> d           3.606   1.727  -0.893  0.00  0.00     0.038 A 
ATOM      6  C9  <0> d           2.299   1.286  -1.048  0.00  0.00     0.076 A 
ENDROOT
BRANCH   3   7
ATOM      7  C11 <0> d           5.459  -1.538  -0.497  0.00  0.00     0.239 C 
BRANCH   7   8
ATOM      8  C12 <0> d           6.185  -1.754  -1.826  0.00  0.00     0.201 C 
BRANCH   8   9
ATOM      9  O2  <0> d           7.165  -2.782  -1.672  0.00  0.00    -0.398 OA
ATOM     10  H18 <0> d           7.665  -2.973  -2.478  0.00  0.00     0.209 HD
ENDBRANCH   8   9
ENDBRANCH   7   8
BRANCH   7  11
ATOM     11  N2  <0> d           6.407  -1.025   0.501  0.00  0.00    -0.069 N 
ATOM     12  H19 <0> d           5.928  -0.882   1.377  0.00  0.00     0.275 HD
ATOM     13  H20 <0> d           7.153  -1.692   0.630  0.00  0.00     0.275 HD
ATOM     14  H21 <0> d           6.791  -0.148   0.181  0.00  0.00     0.275 HD
ENDBRANCH   7  11
ENDBRANCH   3   7
BRANCH   1  15
ATOM     15  C3  <0> d           0.601  -0.553  -1.176  0.00  0.00     0.275 C 
BRANCH  15  16
ATOM     16  N1  <0> d           0.208  -0.455  -2.588  0.00  0.00    -0.075 N 
ATOM     17  C1  <0> d           1.011  -1.390  -3.386  0.00  0.00     0.269 C 
ATOM     18  C2  <0> d          -1.216  -0.791  -2.725  0.00  0.00     0.269 C 
ATOM     19  H22 <0> d           0.364   0.487  -2.915  0.00  0.00     0.279 HD
ENDBRANCH  15  16
ENDBRANCH   1  15
BRANCH   6  20
ATOM     20  O1  <0> d           1.295   2.184  -1.226  0.00  0.00    -0.355 OA
ATOM     21  C10 <0> d           1.657   3.566  -1.250  0.00  0.00     0.210 C 
ENDBRANCH   6  20
TORSDOF 7
ENDMDL
MODEL ZINC72254203
REMARK  4 active torsions:
REMARK  status: ('A' for Active; 'I' for Inactive)
REMARK    1  A    between atoms: C5_5  and  S1_9 
REMARK    2  A    between atoms: S1_9  and  N1_12 
REMARK    3  A    between atoms: N2_16  and  C14_19 
REMARK    4  A    between atoms: C14_19  and  C15_20 
ROOT
ATOM      1  N1  <0> d          -1.714  -4.762  -1.171  0.00  0.00    -0.305 N 
ATOM      2  C9  <0> d          -2.923  -4.853  -0.396  0.00  0.00     0.137 C 
ATOM      3  C10 <0> d          -3.340  -6.274   0.050  0.00  0.00     0.048 C 
ATOM      4  C11 <0> d          -3.124  -7.279  -1.105  0.00  0.00     0.236 C 
ATOM      5  N2  <0> d          -3.484  -6.666  -2.361  0.00  0.00    -0.069 N 
ATOM      6  C12 <0> d          -2.208  -6.270  -2.951  0.00  0.00     0.255 C 
ATOM      7  C13 <0> d          -1.800  -4.881  -2.666  0.00  0.00     0.163 C 
ATOM      8  H29 <0> d          -4.065  -5.856  -2.204  0.00  0.00     0.280 HD
ENDROOT
BRANCH   1   9
ATOM      9  S1  <0> d          -0.254  -4.522  -0.428  0.00  0.00     0.261 S 
ATOM     10  O1  <0> d           0.715  -5.214  -1.204  0.00  0.00    -0.200 OA
ATOM     11  O2  <0> d          -0.453  -4.786   0.954  0.00  0.00    -0.200 OA
BRANCH   9  12
ATOM     12  C5  <0> d           0.124  -2.806  -0.563  0.00  0.00     0.086 A 
ATOM     13  C4  <0> d          -0.653  -1.873   0.097  0.00  0.00    -0.038 A 
ATOM     14  C3  <0> d          -0.356  -0.527  -0.009  0.00  0.00     0.015 A 
ATOM     15  C18 <0> d          -1.824  -2.323   0.932  0.00  0.00     0.050 C 
ATOM     16  C2  <0> d           0.718  -0.115  -0.774  0.00  0.00    -0.056 A 
ATOM     17  C1  <0> d           1.042   1.353  -0.889  0.00  0.00     0.049 C 
ATOM     18  C7  <0> d           1.492  -1.047  -1.438  0.00  0.00    -0.055 A 
ATOM     19  C6  <0> d           1.198  -2.394  -1.329  0.00  0.00     0.033 A 
ATOM     20  C8  <0> d           2.660  -0.597  -2.278  0.00  0.00     0.049 C 
ENDBRANCH   9  12
ENDBRANCH   1   9
BRANCH   5  21
ATOM     21  C14 <0> d          -4.171  -7.634  -3.227  0.00  0.00     0.239 C 
BRANCH  21  22
ATOM     22  C15 <0> d          -5.503  -8.033  -2.589  0.00  0.00     0.011 A 
ATOM     23  C17 <0> d          -6.426  -8.949  -3.395  0.00  0.00     0.007 A 
ATOM     24  C16 <0> d          -5.678  -9.496  -2.177  0.00  0.00     0.007 A 
ENDBRANCH  21  22
ENDBRANCH   5  21
TORSDOF 4
ENDMDL
MODEL ZINC72264964
REMARK  4 active torsions:
REMARK  status: ('A' for Active; 'I' for Inactive)
REMARK    1  A    between atoms: O1_2  and  C2_3 
REMARK    2  A    between atoms: C2_3  and  C3_5 
REMARK    3  A    between atoms: C3_5  and  C4_6 
REMARK    4  A    between atoms: C4_6  and  N1_7 
ROOT
ATOM      1  N1  <0> d           1.442  -3.982  -2.474  0.00  0.00    -0.313 N 
ATOM      2  C5  <0> d           2.520  -4.683  -1.911  0.00  0.00     0.070 A 
ATOM      3  C6  <0> d           3.372  -4.064  -1.012  0.00  0.00     0.034 A 
ATOM      4  C7  <0> d           4.429  -4.772  -0.469  0.00  0.00     0.026 A 
ATOM      5  C8  <0> d           4.636  -6.094  -0.822  0.00  0.00     0.036 A 
ATOM      6  C9  <0> d           3.787  -6.716  -1.720  0.00  0.00     0.063 A 
ATOM      7  C10 <0> d           2.727  -6.014  -2.266  0.00  0.00     0.098 A 
ATOM      8  O3  <0> d           1.881  -6.611  -3.147  0.00  0.00    -0.340 OA
ATOM      9  C11 <0> d           0.517  -6.183  -3.120  0.00  0.00     0.279 C 
ATOM     10  C12 <0> d           0.456  -4.678  -3.082  0.00  0.00     0.248 C 
ATOM     11  O4  <0> d          -0.472  -4.092  -3.598  0.00  0.00    -0.271 OA
ATOM     12 Cl1  <0> d           5.967  -6.973  -0.137  0.00  0.00    -0.084 Cl
ENDROOT
BRANCH   1  13
ATOM     13  C4  <0> d           1.385  -2.521  -2.400  0.00  0.00     0.142 C 
BRANCH  13  14
ATOM     14  C3  <0> d           0.657  -2.104  -1.120  0.00  0.00     0.131 C 
BRANCH  14  15
ATOM     15  C2  <0> d           0.598  -0.600  -1.043  0.00  0.00     0.259 C 
ATOM     16  O2  <0> d           1.088   0.070  -1.921  0.00  0.00    -0.265 OA
BRANCH  15  17
ATOM     17  O1  <0> d           0.002  -0.004   0.002  0.00  0.00    -0.326 OA
ATOM     18  C1  <0> d          -0.017   1.425   0.010  0.00  0.00     0.213 C 
ENDBRANCH  15  17
ENDBRANCH  14  15
ENDBRANCH  13  14
ENDBRANCH   1  13
TORSDOF 4
ENDMDL
MODEL ZINC72291505
REMARK  6 active torsions:
REMARK  status: ('A' for Active; 'I' for Inactive)
REMARK    1  A    between atoms: C3_3  and  C4_4 
REMARK    2  A    between atoms: C5_5  and  C6_6 
REMARK       I    between atoms: C6_6  and  N1_8 
REMARK    3  A    between atoms: N1_8  and  C7_9 
REMARK    4  A    between atoms: C10_12  and  N2_15 
REMARK    5  A    between atoms: C15_18  and  C18_21 
REMARK    6  A    between atoms: C18_21  and  N3_22 
ROOT
ATOM      1  C7  <0> d           2.068  -6.297   2.271  0.00  0.00     0.035 A 
ATOM      2  C8  <0> d           2.643  -6.835   3.415  0.00  0.00     0.032 A 
ATOM      3  C9  <0> d           2.574  -8.194   3.649  0.00  0.00     0.031 A 
ATOM      4  C10 <0> d           1.928  -9.023   2.740  0.00  0.00     0.030 A 
ATOM      5  C11 <0> d           1.352  -8.485   1.597  0.00  0.00     0.031 A 
ATOM      6  C12 <0> d           1.417  -7.125   1.366  0.00  0.00     0.032 A 
ENDROOT
BRANCH   4   7
ATOM      7  N2  <0> d           1.858 -10.400   2.976  0.00  0.00    -0.381 N 
ATOM      8  C17 <0> d           2.346 -10.968   4.240  0.00  0.00     0.123 C 
ATOM      9  C16 <0> d           3.348 -12.079   3.933  0.00  0.00     0.026 C 
ATOM     10  C15 <0> d           2.702 -13.100   2.992  0.00  0.00     0.014 C 
ATOM     11  C14 <0> d           2.320 -12.414   1.679  0.00  0.00     0.026 C 
ATOM     12  C13 <0> d           1.301 -11.306   1.963  0.00  0.00     0.123 C 
BRANCH  10  13
ATOM     13  C18 <0> d           3.694 -14.230   2.708  0.00  0.00     0.238 C 
BRANCH  13  14
ATOM     14  N3  <0> d           3.047 -15.249   1.871  0.00  0.00    -0.078 N 
ATOM     15  C19 <0> d           4.033 -16.273   1.497  0.00  0.00     0.269 C 
ATOM     16  C20 <0> d           1.950 -15.875   2.620  0.00  0.00     0.269 C 
ATOM     17  H30 <0> d           2.680 -14.816   1.036  0.00  0.00     0.278 HD
ENDBRANCH  13  14
ENDBRANCH  10  13
ENDBRANCH   4   7
BRANCH   1  18
ATOM     18  N1  <0> d           2.139  -4.919   2.034  0.00  0.00    -0.324 N 
ATOM     19  C6  <0> d           1.107  -4.282   1.446  0.00  0.00     0.245 C 
ATOM     20  O1  <0> d           0.153  -4.919   1.036  0.00  0.00    -0.268 OA
ATOM     21  H8  <0> d           2.930  -4.422   2.294  0.00  0.00     0.169 HD
BRANCH  19  22
ATOM     22  C5  <0> d           1.132  -2.828   1.299  0.00  0.00     0.074 C 
ATOM     23  C4  <0> d           0.097  -2.189   0.709  0.00  0.00     0.005 C 
BRANCH  23  24
ATOM     24  C3  <0> d           0.123  -0.734   0.562  0.00  0.00    -0.004 C 
ATOM     25  C2  <0> d          -0.899  -0.104  -0.021  0.00  0.00    -0.031 C 
ATOM     26  C1  <0> d          -0.872   1.395  -0.172  0.00  0.00     0.036 C 
ENDBRANCH  23  24
ENDBRANCH  19  22
ENDBRANCH   1  18
TORSDOF 6
ENDMDL
MODEL ZINC72298654
REMARK  5 active torsions:
REMARK  status: ('A' for Active; 'I' for Inactive)
REMARK    1  A    between atoms: C4_5  and  C5_7 
REMARK       I    between atoms: N2_11  and  C10_13 
REMARK    2  A    between atoms: C10_13  and  C11_15 
REMARK    3  A    between atoms: C11_15  and  C12_16 
REMARK    4  A    between atoms: C12_16  and  O2_17 
REMARK    5  A    between atoms: O2_17  and  C13_18 
ROOT
ATOM      1  C5  <0> d           0.054  -2.955   2.284  0.00  0.00     0.063 C 
ATOM      2  C6  <0> d          -1.182  -3.856   2.233  0.00  0.00     0.014 C 
ATOM      3  C7  <0> d          -1.181  -4.795   3.442  0.00  0.00     0.021 C 
ATOM      4  C8  <0> d           0.067  -5.682   3.393  0.00  0.00     0.126 C 
ATOM      5  N2  <0> d           1.254  -4.823   3.295  0.00  0.00    -0.351 N 
ATOM      6  C9  <0> d           1.316  -3.821   2.222  0.00  0.00     0.137 C 
ATOM      7  C10 <0> d           2.269  -4.952   4.173  0.00  0.00     0.221 C 
ATOM      8  O1  <0> d           3.244  -4.237   4.081  0.00  0.00    -0.273 OA
ENDROOT
BRANCH   7   9
ATOM      9  C11 <0> d           2.191  -5.984   5.268  0.00  0.00     0.129 C 
BRANCH   9  10
ATOM     10  C12 <0> d           3.462  -5.921   6.118  0.00  0.00     0.185 C 
BRANCH  10  11
ATOM     11  O2  <0> d           3.388  -6.900   7.157  0.00  0.00    -0.351 OA
BRANCH  11  12
ATOM     12  C13 <0> d           4.445  -6.977   8.008  0.00  0.00     0.068 A 
ATOM     13  C18 <0> d           4.440  -7.905   9.040  0.00  0.00     0.037 A 
ATOM     14  C17 <0> d           5.518  -7.985   9.900  0.00  0.00     0.003 A 
ATOM     15  C16 <0> d           6.596  -7.133   9.741  0.00  0.00     0.000 A 
ATOM     16  C15 <0> d           6.600  -6.204   8.717  0.00  0.00     0.003 A 
ATOM     17  C14 <0> d           5.528  -6.124   7.850  0.00  0.00     0.037 A 
ENDBRANCH  11  12
ENDBRANCH  10  11
ENDBRANCH   9  10
ENDBRANCH   7   9
BRANCH   1  18
ATOM     18  C4  <0> d           0.035  -2.009   1.111  0.00  0.00     0.081 A 
ATOM     19  S1  <0> d           0.033  -2.379  -0.531  0.00  0.00    -0.084 SA
ATOM     20  C3  <0> d           0.006  -0.708  -1.159  0.00  0.00     0.078 A 
ATOM     21  C2  <0> d           0.002  -0.004   0.002  0.00  0.00     0.038 A 
ATOM     22  C1  <0> d          -0.018   1.503   0.010  0.00  0.00     0.071 C 
ATOM     23  N1  <0> d           0.022  -0.699   1.122  0.00  0.00    -0.250 NA
ENDBRANCH   1  18
TORSDOF 5
ENDMDL
MODEL ZINC72327360
REMARK  2 active torsions:
REMARK  status: ('A' for Active; 'I' for Inactive)
REMARK       I    between atoms: N2_6  and  C7_9 
REMARK    1  A    between atoms: C7_9  and  C8_11 
REMARK    2  A    between atoms: C8_11  and  N3_12 
ROOT
ATOM      1  N3  <0> d          -2.325  -3.792   4.273  0.00  0.00    -0.343 N 
ATOM      2  C9  <0> d          -1.859  -5.045   4.890  0.00  0.00     0.131 C 
ATOM      3  C10 <0> d          -0.615  -4.750   5.726  0.00  0.00     0.081 C 
ATOM      4  C11 <0> d          -0.989  -4.315   7.136  0.00  0.00     0.145 C 
ATOM      5  C12 <0> d          -1.715  -2.977   7.178  0.00  0.00     0.070 C 
ATOM      6  C13 <0> d          -3.084  -3.071   6.507  0.00  0.00     0.107 C 
ATOM      7  C14 <0> d          -2.904  -2.852   5.019  0.00  0.00     0.220 C 
ATOM      8  O2  <0> d          -3.289  -1.822   4.506  0.00  0.00    -0.273 OA
ATOM      9  N4  <0> d          -1.866  -5.338   7.726  0.00  0.00    -0.324 N 
ATOM     10  C15 <0> d          -1.339  -6.431   8.320  0.00  0.00     0.256 C 
ATOM     11  O3  <0> d          -2.053  -7.317   8.750  0.00  0.00    -0.267 OA
ATOM     12  C16 <0> d           0.131  -6.517   8.430  0.00  0.00     0.065 A 
ATOM     13  C17 <0> d           0.778  -7.708   8.743  0.00  0.00     0.020 A 
ATOM     14  C18 <0> d           2.155  -7.729   8.833  0.00  0.00     0.001 A 
ATOM     15  C19 <0> d           2.888  -6.574   8.614  0.00  0.00     0.003 A 
ATOM     16  C20 <0> d           2.254  -5.385   8.303  0.00  0.00     0.038 A 
ATOM     17  C21 <0> d           0.874  -5.346   8.210  0.00  0.00     0.087 A 
ATOM     18  O4  <0> d           0.212  -4.203   7.914  0.00  0.00    -0.319 OA
ATOM     19  H24 <0> d          -2.829  -5.228   7.687  0.00  0.00     0.165 HD
ENDROOT
BRANCH   1  20
ATOM     20  C8  <0> d          -2.146  -3.576   2.835  0.00  0.00     0.228 C 
BRANCH  20  21
ATOM     21  C7  <0> d          -0.815  -2.916   2.588  0.00  0.00     0.237 C 
ATOM     22  N2  <0> d          -0.433  -2.619   1.330  0.00  0.00    -0.349 N 
ATOM     23  C4  <0> d          -1.340  -2.953   0.213  0.00  0.00     0.127 C 
ATOM     24  C5  <0> d           0.852  -1.984   1.122  0.00  0.00     0.153 C 
ATOM     25  C3  <0> d          -1.377  -1.819  -0.827  0.00  0.00     0.047 C 
ATOM     26  C2  <0> d          -1.373  -0.483  -0.117  0.00  0.00     0.236 C 
ATOM     27  N1  <0> d           0.002  -0.004   0.002  0.00  0.00    -0.073 N 
ATOM     28  C1  <0> d          -0.018   1.465   0.010  0.00  0.00     0.269 C 
ATOM     29  C6  <0> d           0.689  -0.447   1.154  0.00  0.00     0.254 C 
ATOM     30  H29 <0> d           0.515  -0.310  -0.812  0.00  0.00     0.279 HD
ATOM     31  O1  <0> d          -0.086  -2.651   3.521  0.00  0.00    -0.272 OA
ENDBRANCH  20  21
ENDBRANCH   1  20
TORSDOF 2
ENDMDL
MODEL ZINC36612333
REMARK  3 active torsions:
REMARK  status: ('A' for Active; 'I' for Inactive)
REMARK    1  A    between atoms: C6_6  and  C7_7 
REMARK    2  A    between atoms: C8_8  and  C10_13 
REMARK    3  A    between atoms: C11_15  and  C13_18 
ROOT
ATOM      1  C7  <0> d          -1.272  -0.766   0.011  0.00  0.00     0.097 A 
ATOM      2  C8  <0> d          -1.509  -1.991  -0.642  0.00  0.00     0.033 A 
ATOM      3  C9  <0> d          -2.785  -2.354  -0.391  0.00  0.00     0.121 A 
ATOM      4  N1  <0> d          -3.343  -1.403   0.389  0.00  0.00    -0.288 N 
ATOM      5  H1  <0> d          -4.253  -1.404   0.725  0.00  0.00     0.188 HD
ATOM      6  N2  <0> d          -2.377  -0.419   0.634  0.00  0.00    -0.174 NA
ENDROOT
BRANCH   2   7
ATOM      7  C10 <0> d          -0.515  -2.760  -1.474  0.00  0.00     0.320 C 
ATOM      8  S1  <0> d           0.286  -1.675  -2.731  0.00  0.00    -0.126 SA
ATOM      9  C12 <0> d           0.285  -2.857  -4.146  0.00  0.00     0.123 C 
ATOM     10  C11 <0> d          -0.314  -4.123  -3.480  0.00  0.00     0.331 C 
ATOM     11  N3  <0> d          -1.201  -3.745  -2.365  0.00  0.00     0.117 N 
ATOM     12  H9  <0> d          -1.496  -4.558  -1.845  0.00  0.00     0.319 HD
BRANCH  10  13
ATOM     13  C13 <0> d          -1.103  -4.898  -4.504  0.00  0.00     0.208 C 
ATOM     14  O1  <0> d          -2.315  -4.981  -4.404  0.00  0.00    -0.646 OA
ATOM     15  O2  <0> d          -0.528  -5.441  -5.432  0.00  0.00    -0.646 OA
ENDBRANCH  10  13
ENDBRANCH   2   7
BRANCH   1  16
ATOM     16  C6  <0> d           0.002  -0.004   0.002  0.00  0.00    -0.005 A 
ATOM     17  C1  <0> d          -0.017   1.389   0.010  0.00  0.00     0.015 A 
ATOM     18  C2  <0> d           1.170   2.093   0.002  0.00  0.00     0.024 A 
ATOM     19  C3  <0> d           2.378   1.417  -0.013  0.00  0.00     0.034 A 
ATOM     20  C4  <0> d           2.402   0.033  -0.021  0.00  0.00     0.024 A 
ATOM     21 Cl1  <0> d           3.868   2.308  -0.024  0.00  0.00    -0.084 Cl
ATOM     22  C5  <0> d           1.220  -0.680  -0.013  0.00  0.00     0.015 A 
ENDBRANCH   1  16
TORSDOF 3
ENDMDL
MODEL ZINC05047017
REMARK  3 active torsions:
REMARK  status: ('A' for Active; 'I' for Inactive)
REMARK    1  A    between atoms: C4_4  and  N1_7 
REMARK    2  A    between atoms: C13_17  and  C16_21 
REMARK    3  A    between atoms: C16_21  and  C17_23 
ROOT
ATOM      1  N1  <0> d           3.624  -0.652  -0.037  0.00  0.00    -0.252 N 
ATOM      2  C7  <0> d           4.806  -0.026  -0.139  0.00  0.00     0.238 C 
ATOM      3  O1  <0> d           4.963   1.158  -0.346  0.00  0.00    -0.272 OA
ATOM      4  C8  <0> d           5.911  -1.046   0.050  0.00  0.00     0.122 C 
ATOM      5  C9  <0> d           6.920  -0.936  -1.094  0.00  0.00     0.142 C 
ATOM      6  C10 <0> d           8.337  -1.072  -0.592  0.00  0.00     0.002 C 
ATOM      7  C11 <0> d           9.232  -1.700  -1.357  0.00  0.00     0.019 C 
ATOM      8  C12 <0> d           8.880  -2.252  -2.669  0.00  0.00     0.138 C 
ATOM      9  N2  <0> d           7.623  -2.445  -2.986  0.00  0.00    -0.188 NA
ATOM     10  N3  <0> d           6.668  -2.052  -2.025  0.00  0.00    -0.283 N 
ATOM     11  C13 <0> d           5.386  -2.666  -1.695  0.00  0.00     0.193 C 
ATOM     12  C14 <0> d           5.159  -2.391  -0.175  0.00  0.00     0.126 C 
ATOM     13  C15 <0> d           3.714  -1.987   0.053  0.00  0.00     0.238 C 
ATOM     14  O2  <0> d           2.795  -2.745   0.277  0.00  0.00    -0.272 OA
ENDROOT
BRANCH  11  15
ATOM     15  C16 <0> d           4.284  -2.040  -2.510  0.00  0.00     0.184 C 
ATOM     16  O3  <0> d           4.487  -1.006  -3.111  0.00  0.00    -0.290 OA
BRANCH  15  17
ATOM     17  C17 <0> d           2.963  -2.682  -2.577  0.00  0.00     0.012 A 
ATOM     18  C22 <0> d           1.938  -2.103  -3.333  0.00  0.00     0.018 A 
ATOM     19  C21 <0> d           0.705  -2.713  -3.396  0.00  0.00     0.043 A 
ATOM     20  C20 <0> d           0.474  -3.892  -2.703  0.00  0.00     0.116 A 
ATOM     21  C19 <0> d           1.485  -4.468  -1.947  0.00  0.00     0.043 A 
ATOM     22  F1  <0> d          -0.739  -4.483  -2.765  0.00  0.00    -0.206 F 
ATOM     23  C18 <0> d           2.724  -3.872  -1.880  0.00  0.00     0.018 A 
ENDBRANCH  15  17
ENDBRANCH  11  15
BRANCH   1  24
ATOM     24  C4  <0> d           2.399   0.031  -0.021  0.00  0.00     0.045 A 
ATOM     25  C3  <0> d           1.621   0.035   1.128  0.00  0.00     0.030 A 
ATOM     26  C2  <0> d           0.415   0.710   1.141  0.00  0.00     0.002 A 
ATOM     27  C1  <0> d          -0.016   1.380   0.011  0.00  0.00     0.000 A 
ATOM     28  C6  <0> d           0.757   1.377  -1.135  0.00  0.00     0.002 A 
ATOM     29  C5  <0> d           1.963   0.704  -1.154  0.00  0.00     0.030 A 
ENDBRANCH   1  24
TORSDOF 3
ENDMDL
MODEL ZINC42372945
REMARK  4 active torsions:
REMARK  status: ('A' for Active; 'I' for Inactive)
REMARK    1  A    between atoms: C4_5  and  C5_7 
REMARK    2  A    between atoms: C5_7  and  N2_8 
REMARK    3  A    between atoms: N2_8  and  C6_9 
REMARK    4  A    between atoms: C6_9  and  C7_10 
ROOT
ATOM      1  N2  <0> d           1.451  -4.454   1.060  0.00  0.00    -0.068 N 
ATOM      2  H8  <0> d           1.922  -4.406   0.169  0.00  0.00     0.277 HD
ATOM      3  H19 <0> d           1.921  -3.856   1.723  0.00  0.00     0.277 HD
ENDROOT
BRANCH   1   4
ATOM      4  C5  <0> d           0.059  -4.011   0.902  0.00  0.00     0.280 C 
BRANCH   4   5
ATOM      5  C4  <0> d           0.039  -2.590   0.400  0.00  0.00     0.027 A 
ATOM      6  C3  <0> d           0.027  -2.121  -0.874  0.00  0.00     0.133 A 
ATOM      7  N1  <0> d           0.009  -0.812  -1.029  0.00  0.00    -0.258 NA
ATOM      8  C2  <0> d           0.002  -0.004   0.002  0.00  0.00     0.071 A 
ATOM      9  C1  <0> d          -0.018   1.503   0.010  0.00  0.00     0.078 C 
ATOM     10  S1  <0> d           0.029  -1.057   1.315  0.00  0.00    -0.077 SA
ENDBRANCH   4   5
ENDBRANCH   1   4
BRANCH   1  11
ATOM     11  C6  <0> d           1.471  -5.839   1.550  0.00  0.00     0.264 C 
BRANCH  11  12
ATOM     12  C7  <0> d           2.920  -6.301   1.714  0.00  0.00     0.147 C 
ATOM     13  O1  <0> d           3.553  -5.530   2.737  0.00  0.00    -0.384 OA
ATOM     14  C11 <0> d           4.925  -5.864   2.955  0.00  0.00     0.168 C 
ATOM     15  C10 <0> d           5.029  -7.327   3.396  0.00  0.00     0.026 C 
ATOM     16  C9  <0> d           4.394  -8.220   2.326  0.00  0.00     0.004 C 
ATOM     17  C8  <0> d           2.943  -7.781   2.104  0.00  0.00     0.034 C 
ENDBRANCH  11  12
ENDBRANCH   1  11
TORSDOF 4
ENDMDL
MODEL ZINC72374893
REMARK  4 active torsions:
REMARK  status: ('A' for Active; 'I' for Inactive)
REMARK    1  A    between atoms: C2_2  and  C3_3 
REMARK       I    between atoms: C3_3  and  N1_5 
REMARK    2  A    between atoms: C7_9  and  C9_11 
REMARK    3  A    between atoms: C11_13  and  N3_18 
REMARK    4  A    between atoms: N3_18  and  C15_19 
ROOT
ATOM      1  C9  <0> d           1.663  -3.626  -4.800  0.00  0.00     0.017 A 
ATOM      2  C10 <0> d           2.274  -4.829  -4.514  0.00  0.00     0.055 A 
ATOM      3  C11 <0> d           3.022  -5.461  -5.505  0.00  0.00     0.053 A 
ATOM      4  C12 <0> d           3.121  -4.845  -6.753  0.00  0.00     0.054 A 
ATOM      5  C13 <0> d           2.479  -3.642  -6.958  0.00  0.00     0.007 A 
ATOM      6  N2  <0> d           1.775  -3.078  -5.995  0.00  0.00    -0.363 N 
ATOM      7  C14 <0> d           2.578  -2.966  -8.302  0.00  0.00     0.068 C 
ATOM      8  H28 <0> d           1.331  -2.233  -6.169  0.00  0.00     0.165 HD
ENDROOT
BRANCH   1   9
ATOM      9  C7  <0> d           0.851  -2.932  -3.737  0.00  0.00     0.054 C 
ATOM     10  C6  <0> d           0.145  -3.978  -2.869  0.00  0.00     0.014 C 
ATOM     11  C5  <0> d          -0.706  -3.274  -1.810  0.00  0.00     0.021 C 
ATOM     12  C4  <0> d           0.201  -2.430  -0.909  0.00  0.00     0.126 C 
ATOM     13  N1  <0> d           0.991  -1.521  -1.751  0.00  0.00    -0.351 N 
ATOM     14  C3  <0> d           0.994  -0.195  -1.513  0.00  0.00     0.219 C 
ATOM     15  C8  <0> d           1.771  -2.085  -2.861  0.00  0.00     0.136 C 
ATOM     16  O1  <0> d           1.646   0.546  -2.218  0.00  0.00    -0.273 OA
BRANCH  14  17
ATOM     17  C2  <0> d           0.189   0.368  -0.370  0.00  0.00     0.098 C 
ATOM     18  C1  <0> d           0.366   1.887  -0.321  0.00  0.00     0.014 C 
ENDBRANCH  14  17
ENDBRANCH   1   9
BRANCH   3  19
ATOM     19  N3  <0> d           3.656  -6.677  -5.257  0.00  0.00    -0.188 N 
ATOM     20  H20 <0> d           4.039  -6.855  -4.383  0.00  0.00     0.184 HD
BRANCH  19  21
ATOM     21  C15 <0> d           3.740  -7.633  -6.257  0.00  0.00     0.727 A 
ATOM     22  N5  <0> d           4.442  -8.735  -6.042  0.00  0.00    -0.068 NA
ATOM     23  C18 <0> d           4.538  -9.669  -6.973  0.00  0.00     0.051 A 
ATOM     24  C17 <0> d           3.901  -9.478  -8.190  0.00  0.00     0.054 A 
ATOM     25  C19 <0> d           5.335 -10.922  -6.718  0.00  0.00     0.071 C 
ATOM     26  C16 <0> d           3.179  -8.311  -8.383  0.00  0.00     0.051 A 
ATOM     27  N4  <0> d           3.119  -7.420  -7.408  0.00  0.00    -0.068 NA
ATOM     28  C20 <0> d           2.470  -8.061  -9.690  0.00  0.00     0.071 C 
ENDBRANCH  19  21
ENDBRANCH   3  19
TORSDOF 4
ENDMDL
MODEL ZINC19014567
REMARK  4 active torsions:
REMARK  status: ('A' for Active; 'I' for Inactive)
REMARK       I    between atoms: N1_4  and  C19_25 
REMARK    1  A    between atoms: C4_5  and  C6_7 
REMARK       I    between atoms: N4_15  and  C13_18 
REMARK    2  A    between atoms: C13_18  and  C14_20 
REMARK    3  A    between atoms: C19_25  and  C20_27 
REMARK    4  A    between atoms: C20_27  and  C21_28 
ROOT
ATOM      1  C6  <0> d           0.666  -1.466  -1.095  0.00  0.00     0.130 A 
ATOM      2  N2  <0> d           1.844  -1.916  -0.766  0.00  0.00    -0.237 NA
ATOM      3  C7  <0> d           2.036  -3.185  -0.371  0.00  0.00     0.051 A 
ATOM      4  C8  <0> d           0.974  -4.022  -0.291  0.00  0.00     0.052 A 
ATOM      5  C9  <0> d          -0.304  -3.538  -0.655  0.00  0.00     0.256 A 
ATOM      6  N3  <0> d          -0.426  -2.254  -1.048  0.00  0.00    -0.309 N 
ATOM      7  O1  <0> d          -1.280  -4.268  -0.610  0.00  0.00    -0.267 OA
ATOM      8  C10 <0> d           1.090  -5.447   0.182  0.00  0.00     0.172 C 
ATOM      9  N4  <0> d           2.504  -5.833   0.243  0.00  0.00    -0.347 N 
ATOM     10  C11 <0> d           3.443  -4.863   0.831  0.00  0.00     0.132 C 
ATOM     11  C12 <0> d           3.443  -3.615  -0.051  0.00  0.00     0.080 C 
ATOM     12  C13 <0> d           2.926  -7.027  -0.219  0.00  0.00     0.224 C 
ATOM     13  O2  <0> d           2.146  -7.773  -0.772  0.00  0.00    -0.273 OA
ATOM     14  H11 <0> d          -1.294  -1.901  -1.300  0.00  0.00     0.170 HD
ENDROOT
BRANCH   1  15
ATOM     15  C4  <0> d           0.521  -0.030  -1.531  0.00  0.00     0.157 C 
ATOM     16  N1  <0> d           0.186   0.019  -2.961  0.00  0.00    -0.340 N 
ATOM     17  C3  <0> d          -0.143   1.317  -3.565  0.00  0.00     0.127 C 
ATOM     18  C19 <0> d           0.180  -1.105  -3.704  0.00  0.00     0.221 C 
ATOM     19  C2  <0> d          -1.262   1.972  -2.748  0.00  0.00     0.020 C 
ATOM     20  C1  <0> d          -0.837   2.051  -1.280  0.00  0.00     0.004 C 
ATOM     21  C5  <0> d          -0.605   0.639  -0.737  0.00  0.00     0.033 C 
ATOM     22  O3  <0> d           0.553  -2.153  -3.220  0.00  0.00    -0.273 OA
BRANCH  18  23
ATOM     23  C20 <0> d          -0.290  -1.060  -5.135  0.00  0.00     0.111 C 
BRANCH  23  24
ATOM     24  C21 <0> d          -0.196  -2.459  -5.746  0.00  0.00     0.017 C 
ATOM     25  C25 <0> d           1.249  -2.875  -5.892  0.00  0.00    -0.026 C 
ATOM     26  C24 <0> d           1.466  -3.414  -7.063  0.00  0.00    -0.030 C 
ATOM     27  C23 <0> d           0.201  -3.450  -7.889  0.00  0.00     0.027 C 
ATOM     28  C22 <0> d          -0.754  -2.455  -7.189  0.00  0.00     0.012 C 
ENDBRANCH  23  24
ENDBRANCH  18  23
ENDBRANCH   1  15
BRANCH  12  29
ATOM     29  C14 <0> d           4.366  -7.435  -0.047  0.00  0.00     0.078 C 
ATOM     30  C18 <0> d           4.724  -8.574  -1.024  0.00  0.00     0.014 C 
ATOM     31  C17 <0> d           5.670  -9.523  -0.266  0.00  0.00     0.001 C 
ATOM     32  C16 <0> d           5.853  -8.926   1.145  0.00  0.00     0.001 C 
ATOM     33  C15 <0> d           4.591  -8.052   1.355  0.00  0.00     0.014 C 
ENDBRANCH  12  29
TORSDOF 4
ENDMDL
MODEL ZINC72423004
REMARK  5 active torsions:
REMARK  status: ('A' for Active; 'I' for Inactive)
REMARK    1  A    between atoms: C2_3  and  C12_18 
REMARK    2  A    between atoms: C3_6  and  C4_7 
REMARK       I    between atoms: N4_11  and  C9_13 
REMARK    3  A    between atoms: C9_13  and  C10_15 
REMARK    4  A    between atoms: C10_15  and  S1_16 
REMARK    5  A    between atoms: C12_18  and  N5_19 
ROOT
ATOM      1  C1  <0> d          -0.018   1.461   0.010  0.00  0.00     0.159 C 
ATOM      2  N1  <0> d           0.002  -0.004   0.002  0.00  0.00    -0.323 N 
ATOM      3  C2  <0> d           0.009  -0.813  -1.085  0.00  0.00     0.155 A 
ATOM      4  N2  <0> d           0.027  -2.044  -0.652  0.00  0.00    -0.133 NA
ATOM      5  N3  <0> d           0.032  -2.051   0.634  0.00  0.00    -0.134 NA
ATOM      6  C3  <0> d           0.024  -0.825   1.080  0.00  0.00     0.135 A 
ENDROOT
BRANCH   6   7
ATOM      7  C4  <0> d           0.032  -0.400   2.526  0.00  0.00     0.075 C 
ATOM      8  C8  <0> d          -1.204  -0.967   3.232  0.00  0.00     0.138 C 
ATOM      9  N4  <0> d          -1.113  -0.655   4.665  0.00  0.00    -0.351 N 
ATOM     10  C7  <0> d           0.100  -1.043   5.398  0.00  0.00     0.126 C 
ATOM     11  C9  <0> d          -2.125  -0.025   5.296  0.00  0.00     0.229 C 
ATOM     12  C6  <0> d           1.320  -0.475   4.667  0.00  0.00     0.021 C 
ATOM     13  C5  <0> d           1.294  -0.933   3.207  0.00  0.00     0.015 C 
ATOM     14  O1  <0> d          -3.121   0.290   4.679  0.00  0.00    -0.273 OA
BRANCH  11  15
ATOM     15  C10 <0> d          -2.018   0.288   6.766  0.00  0.00     0.176 C 
BRANCH  15  16
ATOM     16  S1  <0> d          -3.526   1.131   7.316  0.00  0.00    -0.164 SA
ATOM     17  C11 <0> d          -3.241   1.433   9.082  0.00  0.00     0.090 C 
ENDBRANCH  15  16
ENDBRANCH  11  15
ENDBRANCH   6   7
BRANCH   3  18
ATOM     18  C12 <0> d          -0.004  -0.373  -2.526  0.00  0.00     0.315 C 
BRANCH  18  19
ATOM     19  N5  <0> d           1.377  -0.210  -3.000  0.00  0.00    -0.064 N 
ATOM     20  C16 <0> d           1.383   0.336  -4.375  0.00  0.00     0.235 C 
ATOM     21  C15 <0> d           2.567  -0.315  -5.114  0.00  0.00     0.029 C 
ATOM     22  C14 <0> d           3.204  -1.279  -4.088  0.00  0.00     0.029 C 
ATOM     23  C13 <0> d           2.048  -1.533  -3.087  0.00  0.00     0.235 C 
ATOM     24  H28 <0> d           1.889   0.400  -2.381  0.00  0.00     0.280 HD
ENDBRANCH  18  19
ENDBRANCH   3  18
TORSDOF 5
ENDMDL
MODEL ZINC72427769
REMARK  4 active torsions:
REMARK  status: ('A' for Active; 'I' for Inactive)
REMARK    1  A    between atoms: C2_2  and  C3_3 
REMARK    2  A    between atoms: C3_3  and  C4_4 
REMARK       I    between atoms: C4_4  and  N1_6 
REMARK    3  A    between atoms: N1_6  and  C5_7 
REMARK    4  A    between atoms: C6_9  and  C7_12 
ROOT
ATOM      1  C5  <0> d          -2.552  -4.118   0.004  0.00  0.00     0.193 A 
ATOM      2  N2  <0> d          -3.572  -4.955   0.004  0.00  0.00    -0.201 NA
ATOM      3  C6  <0> d          -3.303  -6.251  -0.004  0.00  0.00     0.177 A 
ATOM      4  N3  <0> d          -2.035  -6.616  -0.011  0.00  0.00    -0.187 NA
ATOM      5  S1  <0> d          -1.225  -5.148  -0.015  0.00  0.00     0.052 SA
ENDROOT
BRANCH   1   6
ATOM      6  N1  <0> d          -2.571  -2.730   0.012  0.00  0.00    -0.304 N 
ATOM      7  C4  <0> d          -1.413  -2.041   0.005  0.00  0.00     0.223 C 
ATOM      8  O1  <0> d          -0.354  -2.632  -0.009  0.00  0.00    -0.273 OA
ATOM      9  H8  <0> d          -3.417  -2.257   0.023  0.00  0.00     0.171 HD
BRANCH   7  10
ATOM     10  C3  <0> d          -1.433  -0.534   0.013  0.00  0.00     0.103 C 
BRANCH  10  11
ATOM     11  C2  <0> d           0.002  -0.004   0.002  0.00  0.00     0.005 C 
ATOM     12  C1  <0> d          -0.019   1.526   0.010  0.00  0.00     0.005 C 
ENDBRANCH  10  11
ENDBRANCH   7  10
ENDBRANCH   1   6
BRANCH   3  13
ATOM     13  C7  <0> d          -4.387  -7.256  -0.004  0.00  0.00     0.054 A 
ATOM     14  S2  <0> d          -6.154  -7.004   0.006  0.00  0.00    -0.079 SA
ATOM     15  C10 <0> d          -6.654  -8.718  -0.004  0.00  0.00     0.052 A 
ATOM     16  C9  <0> d          -5.458  -9.363  -0.006  0.00  0.00     0.028 A 
ATOM     17 Br1  <0> d          -8.398  -9.448  -0.004  0.00  0.00    -0.043 Br
ATOM     18  C8  <0> d          -4.296  -8.622  -0.006  0.00  0.00     0.025 A 
ENDBRANCH   3  13
TORSDOF 4
ENDMDL
MODEL ZINC72447916
REMARK  4 active torsions:
REMARK  status: ('A' for Active; 'I' for Inactive)
REMARK    1  A    between atoms: C4_4  and  C7_7 
REMARK    2  A    between atoms: C7_7  and  N1_8 
REMARK    3  A    between atoms: N2_17  and  C17_19 
REMARK    4  A    between atoms: C17_19  and  C18_20 
ROOT
ATOM      1  N1  <0> d           3.671  -2.326   1.442  0.00  0.00    -0.066 N 
ATOM      2  C8  <0> d           2.930  -3.225   2.335  0.00  0.00     0.235 C 
ATOM      3  C9  <0> d           3.455  -3.079   3.764  0.00  0.00     0.029 C 
ATOM      4  C10 <0> d           4.943  -3.439   3.795  0.00  0.00     0.014 C 
ATOM      5  C11 <0> d           5.695  -2.545   2.805  0.00  0.00     0.010 C 
ATOM      6  C12 <0> d           5.087  -2.710   1.411  0.00  0.00     0.246 C 
ATOM      7  C13 <0> d           5.575  -1.084   3.245  0.00  0.00     0.014 C 
ATOM      8  C14 <0> d           6.235  -0.918   4.617  0.00  0.00     0.031 C 
ATOM      9  C15 <0> d           7.696  -1.365   4.532  0.00  0.00     0.273 C 
ATOM     10  N2  <0> d           7.756  -2.769   4.107  0.00  0.00     0.096 N 
ATOM     11  C16 <0> d           7.170  -2.946   2.772  0.00  0.00     0.284 C 
ATOM     12  H29 <0> d           3.588  -1.378   1.778  0.00  0.00     0.280 HD
ENDROOT
BRANCH  10  13
ATOM     13  C17 <0> d           9.136  -3.273   4.148  0.00  0.00     0.348 C 
BRANCH  13  14
ATOM     14  C18 <0> d           9.535  -3.530   5.578  0.00  0.00     0.109 A 
ATOM     15  N4  <0> d          10.194  -2.688   6.357  0.00  0.00    -0.353 N 
ATOM     16  C20 <0> d          10.363  -3.272   7.562  0.00  0.00     0.106 A 
ATOM     17  H30 <0> d          10.501  -1.803   6.106  0.00  0.00     0.166 HD
ATOM     18  C19 <0> d           9.798  -4.494   7.500  0.00  0.00     0.106 A 
ATOM     19  N3  <0> d           9.288  -4.638   6.259  0.00  0.00    -0.353 N 
ATOM     20  H1  <0> d           8.821  -5.420   5.923  0.00  0.00     0.166 HD
ENDBRANCH  13  14
ENDBRANCH  10  13
BRANCH   1  21
ATOM     21  C7  <0> d           3.111  -2.413   0.087  0.00  0.00     0.273 C 
BRANCH  21  22
ATOM     22  C4  <0> d           1.693  -1.903   0.095  0.00  0.00    -0.033 A 
ATOM     23  C3  <0> d           1.440  -0.563  -0.137  0.00  0.00     0.009 A 
ATOM     24  C2  <0> d           0.139  -0.095  -0.131  0.00  0.00     0.001 A 
ATOM     25  C1  <0> d          -0.908  -0.966   0.107  0.00  0.00     0.000 A 
ATOM     26  C6  <0> d          -0.654  -2.305   0.338  0.00  0.00     0.001 A 
ATOM     27  C5  <0> d           0.646  -2.773   0.333  0.00  0.00     0.009 A 
ENDBRANCH  21  22
ENDBRANCH   1  21
TORSDOF 4
ENDMDL
MODEL ZINC72470142
REMARK  5 active torsions:
REMARK  status: ('A' for Active; 'I' for Inactive)
REMARK    1  A    between atoms: N3_11  and  C9_14 
REMARK    2  A    between atoms: C12_17  and  O3_20 
REMARK    3  A    between atoms: O3_20  and  C15_21 
REMARK    4  A    between atoms: C16_25  and  C17_27 
REMARK    5  A    between atoms: C20_30  and  O4_33 
ROOT
ATOM      1  C1  <0> d           0.290   1.446  -0.015  0.00  0.00     0.182 C 
ATOM      2  N1  <0> d           0.132  -0.010  -0.009  0.00  0.00    -0.255 N 
ATOM      3  C2  <0> d          -0.128  -0.781  -1.109  0.00  0.00     0.159 A 
ATOM      4  C3  <0> d          -0.202  -2.121  -0.655  0.00  0.00     0.059 A 
ATOM      5  C4  <0> d          -0.461  -3.132  -1.581  0.00  0.00     0.066 A 
ATOM      6  C5  <0> d          -0.638  -2.770  -2.930  0.00  0.00     0.067 A 
ATOM      7  C6  <0> d          -0.548  -1.430  -3.291  0.00  0.00     0.137 A 
ATOM      8  N2  <0> d          -0.304  -0.499  -2.393  0.00  0.00    -0.240 NA
ATOM      9  C7  <0> d          -0.892  -4.030  -3.655  0.00  0.00     0.268 A 
ATOM     10  O1  <0> d          -1.095  -4.132  -4.849  0.00  0.00    -0.267 OA
ATOM     11  N3  <0> d          -0.862  -5.047  -2.775  0.00  0.00    -0.244 N 
ATOM     12  C8  <0> d          -0.613  -4.600  -1.530  0.00  0.00     0.267 A 
ATOM     13  O2  <0> d          -0.528  -5.287  -0.533  0.00  0.00    -0.267 OA
ATOM     14  C16 <0> d           0.034  -2.080   0.789  0.00  0.00     0.102 A 
ATOM     15  N4  <0> d           0.230  -0.827   1.121  0.00  0.00    -0.170 NA
ENDROOT
BRANCH  11  16
ATOM     16  C9  <0> d          -1.064  -6.395  -3.110  0.00  0.00     0.046 A 
ATOM     17  C14 <0> d          -1.314  -6.753  -4.428  0.00  0.00     0.033 A 
ATOM     18  C13 <0> d          -1.507  -8.079  -4.758  0.00  0.00     0.039 A 
ATOM     19  C12 <0> d          -1.462  -9.054  -3.771  0.00  0.00     0.078 A 
ATOM     20  C11 <0> d          -1.217  -8.696  -2.453  0.00  0.00     0.039 A 
ATOM     21  C10 <0> d          -1.018  -7.370  -2.123  0.00  0.00     0.033 A 
BRANCH  19  22
ATOM     22  O3  <0> d          -1.656 -10.359  -4.096  0.00  0.00    -0.255 OA
BRANCH  22  23
ATOM     23  C15 <0> d          -1.903 -10.656  -5.472  0.00  0.00     0.530 C 
ATOM     24  F1  <0> d          -0.813 -10.236  -6.242  0.00  0.00    -0.144 F 
ATOM     25  F2  <0> d          -2.079 -12.035  -5.627  0.00  0.00    -0.144 F 
ATOM     26  F3  <0> d          -3.057  -9.988  -5.893  0.00  0.00    -0.144 F 
ENDBRANCH  22  23
ENDBRANCH  19  22
ENDBRANCH  11  16
BRANCH  14  27
ATOM     27  C17 <0> d           0.053  -3.243   1.708  0.00  0.00    -0.004 A 
ATOM     28  C22 <0> d          -0.634  -3.189   2.920  0.00  0.00     0.016 A 
ATOM     29  C21 <0> d          -0.618  -4.275   3.769  0.00  0.00     0.037 A 
ATOM     30  C20 <0> d           0.091  -5.418   3.424  0.00  0.00     0.068 A 
ATOM     31  C19 <0> d           0.781  -5.473   2.220  0.00  0.00     0.037 A 
ATOM     32  C18 <0> d           0.764  -4.393   1.364  0.00  0.00     0.016 A 
BRANCH  30  33
ATOM     33  O4  <0> d           0.109  -6.484   4.266  0.00  0.00    -0.356 OA
ATOM     34  C23 <0> d          -0.622  -6.359   5.487  0.00  0.00     0.210 C 
ENDBRANCH  30  33
ENDBRANCH  14  27
TORSDOF 5
ENDMDL
MODEL ZINC72476056
REMARK  8 active torsions:
REMARK  status: ('A' for Active; 'I' for Inactive)
REMARK    1  A    between atoms: N4_5  and  C2_6 
REMARK    2  A    between atoms: C2_6  and  C3_7 
REMARK    3  A    between atoms: C3_7  and  C4_8 
REMARK    4  A    between atoms: C4_8  and  C5_9 
REMARK       I    between atoms: C5_9  and  N5_11 
REMARK    5  A    between atoms: N6_21  and  C14_22 
REMARK    6  A    between atoms: C14_22  and  C15_23 
REMARK    7  A    between atoms: C15_23  and  C16_24 
REMARK    8  A    between atoms: C16_24  and  O3_25 
ROOT
ATOM      1  C5  <0> d          -2.078  -4.113  -1.553  0.00  0.00     0.219 C 
ATOM      2  O1  <0> d          -1.064  -4.034  -2.214  0.00  0.00    -0.273 OA
ATOM      3  N5  <0> d          -3.081  -4.920  -1.953  0.00  0.00    -0.352 N 
ATOM      4  C6  <0> d          -4.320  -5.024  -1.168  0.00  0.00     0.127 C 
ATOM      5  C7  <0> d          -4.563  -6.501  -0.841  0.00  0.00     0.045 C 
ATOM      6  C8  <0> d          -4.561  -7.322  -2.126  0.00  0.00     0.094 C 
ATOM      7  C9  <0> d          -3.227  -7.188  -2.856  0.00  0.00     0.027 C 
ATOM      8  C10 <0> d          -2.964  -5.709  -3.185  0.00  0.00     0.132 C 
ATOM      9  C11 <0> d          -3.330  -7.963  -4.180  0.00  0.00     0.017 C 
ATOM     10  C12 <0> d          -4.325  -7.233  -5.085  0.00  0.00     0.103 C 
ATOM     11  C13 <0> d          -5.583  -6.921  -4.327  0.00  0.00     0.220 C 
ATOM     12  O2  <0> d          -6.578  -6.635  -4.959  0.00  0.00    -0.273 OA
ATOM     13  N6  <0> d          -5.655  -6.930  -3.001  0.00  0.00    -0.347 N 
ENDROOT
BRANCH   1  14
ATOM     14  C4  <0> d          -2.216  -3.311  -0.285  0.00  0.00     0.105 C 
BRANCH  14  15
ATOM     15  C3  <0> d          -0.947  -2.486  -0.063  0.00  0.00     0.031 C 
BRANCH  15  16
ATOM     16  C2  <0> d          -1.087  -1.671   1.225  0.00  0.00     0.154 C 
BRANCH  16  17
ATOM     17  N4  <0> d           0.129  -0.881   1.438  0.00  0.00    -0.242 N 
ATOM     18  C1  <0> d           0.195   0.451   1.614  0.00  0.00     0.256 A 
ATOM     19  N1  <0> d           1.463   0.747   1.769  0.00  0.00    -0.122 NA
ATOM     20  N2  <0> d           2.139  -0.347   1.692  0.00  0.00    -0.024 NA
ATOM     21  N3  <0> d           1.336  -1.333   1.492  0.00  0.00    -0.045 NA
ENDBRANCH  16  17
ENDBRANCH  15  16
ENDBRANCH  14  15
ENDBRANCH   1  14
BRANCH  13  22
ATOM     22  C14 <0> d          -6.925  -6.535  -2.387  0.00  0.00     0.128 C 
BRANCH  22  23
ATOM     23  C15 <0> d          -7.762  -7.783  -2.099  0.00  0.00     0.046 C 
BRANCH  23  24
ATOM     24  C16 <0> d          -9.106  -7.368  -1.496  0.00  0.00     0.165 C 
BRANCH  24  25
ATOM     25  O3  <0> d          -9.887  -8.533  -1.227  0.00  0.00    -0.401 OA
ATOM     26  H26 <0> d         -10.754  -8.345  -0.843  0.00  0.00     0.209 HD
ENDBRANCH  24  25
ENDBRANCH  23  24
ENDBRANCH  22  23
ENDBRANCH  13  22
TORSDOF 8
ENDMDL
MODEL ZINC05936857
REMARK  4 active torsions:
REMARK  status: ('A' for Active; 'I' for Inactive)
REMARK    1  A    between atoms: C2_2  and  O1_3 
REMARK    2  A    between atoms: O1_3  and  C3_4 
REMARK    3  A    between atoms: C4_5  and  C8_10 
REMARK       I    between atoms: C8_10  and  N2_12 
REMARK    4  A    between atoms: N2_12  and  C9_13 
ROOT
ATOM      1  C9  <0> d           0.002  -0.004   0.002  0.00  0.00     0.098 A 
ATOM      2  C10 <0> d          -1.073  -0.881   0.008  0.00  0.00     0.085 A 
ATOM      3  C11 <0> d          -0.780  -2.303  -0.003  0.00  0.00    -0.021 A 
ATOM      4  C12 <0> d           0.533  -2.620  -0.018  0.00  0.00    -0.007 A 
ATOM      5  S1  <0> d           1.374  -1.062  -0.024  0.00  0.00    -0.075 SA
ATOM      6  C13 <0> d           1.131  -3.993  -0.030  0.00  0.00     0.051 C 
ATOM      7  C14 <0> d           0.037  -5.000   0.353  0.00  0.00    -0.014 C 
ATOM      8  C15 <0> d          -1.219  -4.701  -0.470  0.00  0.00     0.009 C 
ATOM      9  C16 <0> d          -1.849  -3.389  -0.000  0.00  0.00     0.042 C 
ATOM     10  C17 <0> d           0.521  -6.421   0.054  0.00  0.00     0.010 C 
ATOM     11  C18 <0> d          -2.422  -0.401   0.023  0.00  0.00     0.103 C 
ATOM     12  N3  <0> d          -3.492  -0.020   0.035  0.00  0.00    -0.191 NA
ENDROOT
BRANCH   1  13
ATOM     13  N2  <0> d          -0.017   1.383   0.010  0.00  0.00    -0.316 N 
ATOM     14  C8  <0> d           1.141   2.072   0.002  0.00  0.00     0.261 C 
ATOM     15  O2  <0> d           2.202   1.479  -0.011  0.00  0.00    -0.267 OA
ATOM     16  H10 <0> d          -0.863   1.856   0.016  0.00  0.00     0.169 HD
BRANCH  14  17
ATOM     17  C4  <0> d           1.121   3.547   0.010  0.00  0.00     0.085 A 
ATOM     18  C3  <0> d           2.319   4.278   0.003  0.00  0.00     0.180 A 
ATOM     19  N1  <0> d           2.297   5.599   0.010  0.00  0.00    -0.236 NA
ATOM     20  C7  <0> d           1.164   6.275   0.025  0.00  0.00     0.119 A 
ATOM     21  C6  <0> d          -0.058   5.626   0.033  0.00  0.00     0.020 A 
ATOM     22  C5  <0> d          -0.093   4.243   0.020  0.00  0.00     0.023 A 
BRANCH  18  23
ATOM     23  O1  <0> d           3.506   3.625  -0.012  0.00  0.00    -0.334 OA
BRANCH  23  24
ATOM     24  C2  <0> d           4.688   4.428  -0.019  0.00  0.00     0.173 C 
ATOM     25  C1  <0> d           5.920   3.521  -0.037  0.00  0.00     0.034 C 
ENDBRANCH  23  24
ENDBRANCH  18  23
ENDBRANCH  14  17
ENDBRANCH   1  13
TORSDOF 4
ENDMDL
MODEL ZINC34617892
REMARK  1 active torsions:
REMARK  status: ('A' for Active; 'I' for Inactive)
REMARK    1  A    between atoms: S1_2  and  N1_5 
ROOT
ATOM      1  N1  <0> d           0.795  -0.411  -1.394  0.00  0.00    -0.246 N 
ATOM      2  C2  <0> d           0.137  -0.620  -2.689  0.00  0.00     0.145 C 
ATOM      3  C3  <0> d           1.265  -0.542  -3.742  0.00  0.00     0.030 C 
ATOM      4  C4  <0> d           2.503  -0.945  -2.908  0.00  0.00     0.105 C 
ATOM      5  C5  <0> d           2.124  -0.587  -1.487  0.00  0.00     0.233 C 
ATOM      6  O3  <0> d           2.906  -0.477  -0.567  0.00  0.00    -0.272 OA
ENDROOT
BRANCH   1   7
ATOM      7  S1  <0> d           0.002  -0.004   0.002  0.00  0.00     0.231 S 
ATOM      8  C1  <0> d          -0.022   1.810   0.012  0.00  0.00     0.186 C 
ATOM      9  O1  <0> d           0.835  -0.488   1.046  0.00  0.00    -0.206 OA
ATOM     10  O2  <0> d          -1.315  -0.510  -0.168  0.00  0.00    -0.206 OA
ENDBRANCH   1   7
TORSDOF 1
ENDMDL
MODEL ZINC07405395
REMARK  3 active torsions:
REMARK  status: ('A' for Active; 'I' for Inactive)
REMARK    1  A    between atoms: C6_6  and  S1_9 
REMARK    2  A    between atoms: S1_9  and  N1_12 
REMARK    3  A    between atoms: N1_12  and  C8_13 
ROOT
ATOM      1  S1  <0> d          -3.079   1.749  -0.392  0.00  0.00     0.265 S 
ATOM      2  O1  <0> d          -2.929   0.379  -0.737  0.00  0.00    -0.200 OA
ATOM      3  O2  <0> d          -4.347   2.390  -0.354  0.00  0.00    -0.200 OA
ENDROOT
BRANCH   1   4
ATOM      4  C6  <0> d          -2.366   1.947   1.206  0.00  0.00     0.109 A 
ATOM      5  C5  <0> d          -1.001   1.814   1.375  0.00  0.00    -0.015 A 
ATOM      6  C4  <0> d          -0.440   1.975   2.630  0.00  0.00     0.042 A 
ATOM      7  C14 <0> d          -0.122   1.500   0.192  0.00  0.00     0.052 C 
ATOM      8  C3  <0> d          -1.246   2.264   3.716  0.00  0.00     0.033 A 
ATOM      9 Cl2  <0> d           1.276   1.814   2.841  0.00  0.00    -0.084 Cl
ATOM     10  C2  <0> d          -2.612   2.392   3.548  0.00  0.00    -0.037 A 
ATOM     11  C1  <0> d          -3.490   2.708   4.731  0.00  0.00     0.050 C 
ATOM     12  C7  <0> d          -3.173   2.231   2.294  0.00  0.00     0.064 A 
ATOM     13 Cl1  <0> d          -4.889   2.391   2.083  0.00  0.00    -0.082 Cl
ENDBRANCH   1   4
BRANCH   1  14
ATOM     14  N1  <0> d          -2.146   2.610  -1.455  0.00  0.00    -0.275 N 
ATOM     15  H5  <0> d          -1.720   2.159  -2.202  0.00  0.00     0.179 HD
BRANCH  14  16
ATOM     16  C8  <0> d          -1.970   3.987  -1.276  0.00  0.00     0.119 A 
ATOM     17  C13 <0> d          -1.205   4.715  -2.180  0.00  0.00     0.146 A 
ATOM     18  C12 <0> d          -1.033   6.076  -1.999  0.00  0.00     0.045 A 
ATOM     19  F1  <0> d          -0.630   4.095  -3.233  0.00  0.00    -0.204 F 
ATOM     20  C11 <0> d          -1.621   6.712  -0.921  0.00  0.00     0.006 A 
ATOM     21  C10 <0> d          -2.383   5.991  -0.020  0.00  0.00     0.045 A 
ATOM     22  C9  <0> d          -2.564   4.631  -0.197  0.00  0.00     0.146 A 
ATOM     23  F2  <0> d          -3.313   3.928   0.681  0.00  0.00    -0.204 F 
ENDBRANCH  14  16
ENDBRANCH   1  14
TORSDOF 3
ENDMDL
MODEL ZINC74336302
REMARK  4 active torsions:
REMARK  status: ('A' for Active; 'I' for Inactive)
REMARK    1  A    between atoms: N1_5  and  C11_15 
REMARK    2  A    between atoms: C6_8  and  C10_13 
REMARK    3  A    between atoms: C10_13  and  N2_14 
REMARK    4  A    between atoms: C11_15  and  C14_18 
ROOT
ATOM      1  C1  <0> d          -0.035   1.536  -0.005  0.00  0.00     0.050 C 
ATOM      2  C2  <0> d           0.002   0.008   0.053  0.00  0.00     0.217 C 
ATOM      3  C3  <0> d          -1.406  -0.530   0.016  0.00  0.00     0.254 C 
ATOM      4  O1  <0> d          -2.282   0.094  -0.545  0.00  0.00    -0.270 OA
ATOM      5  N1  <0> d          -1.688  -1.710   0.611  0.00  0.00    -0.294 N 
ATOM      6  C4  <0> d          -0.665  -2.393   1.283  0.00  0.00     0.072 A 
ATOM      7  C5  <0> d          -0.812  -3.727   1.625  0.00  0.00     0.041 A 
ATOM      8  C6  <0> d           0.209  -4.383   2.289  0.00  0.00    -0.031 A 
ATOM      9  C7  <0> d           1.373  -3.711   2.611  0.00  0.00     0.012 A 
ATOM     10  C8  <0> d           1.526  -2.379   2.271  0.00  0.00     0.040 A 
ATOM     11  C9  <0> d           0.509  -1.716   1.606  0.00  0.00     0.097 A 
ATOM     12  O2  <0> d           0.643  -0.408   1.261  0.00  0.00    -0.335 OA
ENDROOT
BRANCH   5  13
ATOM     13  C11 <0> d          -3.042  -2.266   0.554  0.00  0.00     0.121 C 
ATOM     14  C12 <0> d          -3.502  -2.635   1.966  0.00  0.00     0.050 C 
ATOM     15  C13 <0> d          -3.996  -1.226  -0.038  0.00  0.00     0.050 C 
BRANCH  13  16
ATOM     16  C14 <0> d          -3.043  -3.499  -0.313  0.00  0.00     0.202 C 
ATOM     17  O3  <0> d          -2.008  -3.878  -0.835  0.00  0.00    -0.646 OA
ATOM     18  O4  <0> d          -4.078  -4.117  -0.492  0.00  0.00    -0.646 OA
ENDBRANCH  13  16
ENDBRANCH   5  13
BRANCH   8  19
ATOM     19  C10 <0> d           0.051  -5.834   2.663  0.00  0.00     0.268 C 
BRANCH  19  20
ATOM     20  N2  <0> d           0.550  -6.679   1.570  0.00  0.00    -0.075 N 
ATOM     21  H10 <0> d           0.024  -6.488   0.730  0.00  0.00     0.274 HD
ATOM     22  H11 <0> d           1.526  -6.477   1.408  0.00  0.00     0.274 HD
ATOM     23  H18 <0> d           0.445  -7.650   1.820  0.00  0.00     0.274 HD
ENDBRANCH  19  20
ENDBRANCH   8  19
TORSDOF 4
ENDMDL
MODEL ZINC74369966
REMARK  6 active torsions:
REMARK  status: ('A' for Active; 'I' for Inactive)
REMARK    1  A    between atoms: C3_3  and  C11_13 
REMARK    2  A    between atoms: C6_6  and  C7_7 
REMARK    3  A    between atoms: C7_7  and  C8_9 
REMARK    4  A    between atoms: C8_9  and  C9_10 
REMARK    5  A    between atoms: C9_10  and  C10_11 
REMARK    6  A    between atoms: C10_11  and  N1_12 
ROOT
ATOM      1  C1  <0> d          -0.017   1.394   0.010  0.00  0.00     0.016 A 
ATOM      2  C2  <0> d           1.170   2.096   0.002  0.00  0.00     0.012 A 
ATOM      3  C3  <0> d           2.378   1.421  -0.013  0.00  0.00    -0.005 A 
ATOM      4  C4  <0> d           2.405   0.037  -0.021  0.00  0.00     0.012 A 
ATOM      5  C5  <0> d           1.227  -0.679  -0.014  0.00  0.00     0.016 A 
ATOM      6  C6  <0> d           0.002  -0.004   0.002  0.00  0.00     0.010 A 
ENDROOT
BRANCH   6   7
ATOM      7  C7  <0> d          -1.260  -0.761   0.011  0.00  0.00     0.159 C 
ATOM      8  O1  <0> d          -2.320  -0.172   0.024  0.00  0.00    -0.292 OA
BRANCH   7   9
ATOM      9  C8  <0> d          -1.235  -2.268   0.002  0.00  0.00     0.085 C 
BRANCH   9  10
ATOM     10  C9  <0> d          -2.669  -2.802   0.013  0.00  0.00     0.035 C 
BRANCH  10  11
ATOM     11  C10 <0> d          -2.644  -4.331   0.005  0.00  0.00     0.230 C 
BRANCH  11  12
ATOM     12  N1  <0> d          -4.020  -4.844   0.016  0.00  0.00    -0.079 N 
ATOM     13  H11 <0> d          -4.493  -4.520   0.846  0.00  0.00     0.274 HD
ATOM     14  H12 <0> d          -4.510  -4.511  -0.801  0.00  0.00     0.274 HD
ATOM     15  H13 <0> d          -4.003  -5.853   0.010  0.00  0.00     0.274 HD
ENDBRANCH  11  12
ENDBRANCH  10  11
ENDBRANCH   9  10
ENDBRANCH   7   9
ENDBRANCH   6   7
BRANCH   3  16
ATOM     16  C11 <0> d           3.670   2.196  -0.021  0.00  0.00     0.216 C 
ATOM     17 Cl1  <0> d           4.202   2.496   1.675  0.00  0.00    -0.078 Cl
ATOM     18 Cl2  <0> d           4.934   1.247  -0.888  0.00  0.00    -0.078 Cl
ATOM     19 Cl3  <0> d           3.420   3.772  -0.860  0.00  0.00    -0.078 Cl
ENDBRANCH   3  16
TORSDOF 6
ENDMDL
MODEL ZINC74402537
REMARK  8 active torsions:
REMARK  status: ('A' for Active; 'I' for Inactive)
REMARK    1  A    between atoms: C2_2  and  C3_3 
REMARK    2  A    between atoms: C3_3  and  C4_4 
REMARK    3  A    between atoms: C3_3  and  N1_6 
REMARK    4  A    between atoms: C4_4  and  O1_5 
REMARK    5  A    between atoms: N1_6  and  C5_7 
REMARK    6  A    between atoms: C5_7  and  C6_8 
REMARK    7  A    between atoms: C5_7  and  C12_14 
REMARK    8  A    between atoms: C12_14  and  O3_16 
ROOT
ATOM      1  C5  <0> d          -3.312  -0.757   0.971  0.00  0.00     0.318 C 
ENDROOT
BRANCH   1   2
ATOM      2  N1  <0> d          -2.015  -0.208   0.553  0.00  0.00    -0.051 N 
ATOM      3  H11 <0> d          -1.772  -0.574  -0.355  0.00  0.00     0.279 HD
ATOM      4  H20 <0> d          -1.307  -0.472   1.222  0.00  0.00     0.279 HD
BRANCH   2   5
ATOM      5  C3  <0> d          -2.102   1.256   0.485  0.00  0.00     0.210 C 
BRANCH   5   6
ATOM      6  C2  <0> d          -0.720   1.836   0.179  0.00  0.00     0.030 C 
ATOM      7  C1  <0> d           0.226   1.541   1.345  0.00  0.00     0.007 C 
ENDBRANCH   5   6
BRANCH   5   8
ATOM      8  C4  <0> d          -3.080   1.658  -0.621  0.00  0.00     0.197 C 
BRANCH   8   9
ATOM      9  O1  <0> d          -2.576   1.220  -1.884  0.00  0.00    -0.399 OA
ATOM     10  H10 <0> d          -3.146   1.442  -2.633  0.00  0.00     0.209 HD
ENDBRANCH   8   9
ENDBRANCH   5   8
ENDBRANCH   2   5
ENDBRANCH   1   2
BRANCH   1  11
ATOM     11  C6  <0> d          -3.629  -0.289   2.368  0.00  0.00    -0.018 A 
ATOM     12  C11 <0> d          -4.920   0.080   2.696  0.00  0.00     0.010 A 
ATOM     13  C10 <0> d          -5.212   0.505   3.979  0.00  0.00     0.001 A 
ATOM     14  C9  <0> d          -4.212   0.570   4.930  0.00  0.00     0.000 A 
ATOM     15  C8  <0> d          -2.920   0.205   4.600  0.00  0.00     0.001 A 
ATOM     16  C7  <0> d          -2.628  -0.224   3.319  0.00  0.00     0.010 A 
ENDBRANCH   1  11
BRANCH   1  17
ATOM     17  C12 <0> d          -3.251  -2.263   0.947  0.00  0.00     0.294 C 
ATOM     18  O2  <0> d          -2.183  -2.826   1.003  0.00  0.00    -0.263 OA
BRANCH  17  19
ATOM     19  O3  <0> d          -4.383  -2.979   0.864  0.00  0.00    -0.325 OA
ATOM     20  C13 <0> d          -4.251  -4.402   0.846  0.00  0.00     0.213 C 
ENDBRANCH  17  19
ENDBRANCH   1  17
TORSDOF 8
ENDMDL
MODEL ZINC74409947
REMARK  4 active torsions:
REMARK  status: ('A' for Active; 'I' for Inactive)
REMARK    1  A    between atoms: C3_3  and  N3_20 
REMARK    2  A    between atoms: N1_11  and  C9_12 
REMARK    3  A    between atoms: C9_12  and  C10_13 
REMARK    4  A    between atoms: C10_13  and  N2_14 
ROOT
ATOM      1  C1  <0> d           3.662  -4.801  -1.184  0.00  0.00     0.005 A 
ATOM      2  C2  <0> d           4.777  -4.280  -0.555  0.00  0.00     0.031 A 
ATOM      3  C3  <0> d           4.803  -2.944  -0.178  0.00  0.00     0.056 A 
ATOM      4  C4  <0> d           3.703  -2.133  -0.437  0.00  0.00     0.097 A 
ATOM      5  C5  <0> d           2.583  -2.663  -1.070  0.00  0.00     0.098 A 
ATOM      6  C6  <0> d           2.566  -3.998  -1.443  0.00  0.00     0.039 A 
ATOM      7  O1  <0> d           1.512  -1.862  -1.315  0.00  0.00    -0.340 OA
ATOM      8  C7  <0> d           1.252  -0.826  -0.365  0.00  0.00     0.279 C 
ATOM      9  C8  <0> d           2.535  -0.105  -0.037  0.00  0.00     0.248 C 
ATOM     10  O2  <0> d           2.516   1.073   0.251  0.00  0.00    -0.271 OA
ATOM     11  N1  <0> d           3.706  -0.779  -0.066  0.00  0.00    -0.310 N 
ENDROOT
BRANCH  11  12
ATOM     12  C9  <0> d           4.960  -0.106   0.284  0.00  0.00     0.160 C 
BRANCH  12  13
ATOM     13  C10 <0> d           5.252  -0.312   1.771  0.00  0.00     0.255 C 
BRANCH  13  14
ATOM     14  N2  <0> d           6.509   0.362   2.122  0.00  0.00    -0.070 N 
ATOM     15  C15 <0> d           6.726   0.266   3.570  0.00  0.00     0.235 C 
ATOM     16  C14 <0> d           7.992   1.036   3.952  0.00  0.00     0.028 C 
ATOM     17  C13 <0> d           9.191   0.435   3.213  0.00  0.00     0.003 C 
ATOM     18  C12 <0> d           8.921   0.473   1.706  0.00  0.00     0.028 C 
ATOM     19  C11 <0> d           7.621  -0.276   1.408  0.00  0.00     0.235 C 
ATOM     20  H22 <0> d           6.454   1.334   1.855  0.00  0.00     0.279 HD
ENDBRANCH  13  14
ENDBRANCH  12  13
ENDBRANCH  11  12
BRANCH   3  21
ATOM     21  N3  <0> d           5.931  -2.416   0.459  0.00  0.00    -0.397 N 
ATOM     22  H20 <0> d           6.452  -1.722   0.026  0.00  0.00     0.156 HD
ATOM     23  H21 <0> d           6.192  -2.744   1.334  0.00  0.00     0.156 HD
ENDBRANCH   3  21
TORSDOF 4
ENDMDL
MODEL ZINC74920891
REMARK  4 active torsions:
REMARK  status: ('A' for Active; 'I' for Inactive)
REMARK    1  A    between atoms: C2_2  and  C3_3 
REMARK    2  A    between atoms: C3_3  and  N1_5 
REMARK       I    between atoms: N1_5  and  C5_6 
REMARK    3  A    between atoms: C5_6  and  C6_8 
REMARK    4  A    between atoms: C6_8  and  C7_9 
ROOT
ATOM      1  C6  <0> d           4.271   0.470  -2.304  0.00  0.00     0.107 C 
ENDROOT
BRANCH   1   2
ATOM      2  C5  <0> d           2.824   0.051  -2.353  0.00  0.00     0.218 C 
ATOM      3  N1  <0> d           2.125  -0.091  -1.209  0.00  0.00    -0.357 N 
ATOM      4  H10 <0> d           2.553   0.075  -0.355  0.00  0.00     0.162 HD
ATOM      5  O1  <0> d           2.289  -0.157  -3.421  0.00  0.00    -0.274 OA
BRANCH   3   6
ATOM      6  C3  <0> d           0.718  -0.497  -1.257  0.00  0.00     0.080 C 
ATOM      7  C4  <0> d           0.630  -2.023  -1.329  0.00  0.00     0.032 C 
BRANCH   6   8
ATOM      8  C2  <0> d           0.002  -0.004   0.002  0.00  0.00     0.020 C 
ATOM      9  C1  <0> d          -0.019   1.526   0.010  0.00  0.00     0.007 C 
ENDBRANCH   6   8
ENDBRANCH   3   6
ENDBRANCH   1   2
BRANCH   1  10
ATOM     10  C7  <0> d           4.825   0.556  -3.728  0.00  0.00    -0.003 C 
ATOM     11  C11 <0> d           6.256   1.100  -3.688  0.00  0.00     0.032 C 
ATOM     12  C10 <0> d           6.832   1.110  -5.105  0.00  0.00     0.234 C 
ATOM     13  N2  <0> d           6.841  -0.256  -5.643  0.00  0.00    -0.075 N 
ATOM     14  C9  <0> d           5.466  -0.758  -5.751  0.00  0.00     0.234 C 
ATOM     15  C12 <0> d           7.466  -0.254  -6.972  0.00  0.00     0.269 C 
ATOM     16  H25 <0> d           7.369  -0.856  -5.026  0.00  0.00     0.279 HD
ATOM     17  C8  <0> d           4.837  -0.839  -4.358  0.00  0.00     0.032 C 
ENDBRANCH   1  10
TORSDOF 4
ENDMDL
MODEL ZINC32297773
REMARK  5 active torsions:
REMARK  status: ('A' for Active; 'I' for Inactive)
REMARK    1  A    between atoms: C2_2  and  O1_5 
REMARK    2  A    between atoms: O1_5  and  C5_6 
REMARK       I    between atoms: C5_6  and  N1_8 
REMARK    3  A    between atoms: N1_8  and  C6_9 
REMARK    4  A    between atoms: C6_9  and  C7_10 
REMARK    5  A    between atoms: C6_9  and  C9_13 
ROOT
ATOM      1  C7  <0> d           4.953  -1.035  -1.847  0.00  0.00     0.153 C 
ATOM      2  C8  <0> d           4.695  -0.927  -0.401  0.00  0.00     0.061 C 
ATOM      3  N2  <0> d           4.497  -0.844   0.714  0.00  0.00    -0.197 NA
ENDROOT
BRANCH   1   4
ATOM      4  C6  <0> d           4.035  -0.071  -2.601  0.00  0.00     0.133 C 
BRANCH   4   5
ATOM      5  N1  <0> d           2.641  -0.485  -2.424  0.00  0.00    -0.327 N 
ATOM      6  C5  <0> d           1.952  -0.085  -1.337  0.00  0.00     0.361 C 
ATOM      7  O2  <0> d           2.488   0.619  -0.503  0.00  0.00    -0.238 OA
ATOM      8  H11 <0> d           2.213  -1.047  -3.089  0.00  0.00     0.165 HD
BRANCH   6   9
ATOM      9  O1  <0> d           0.671  -0.465  -1.174  0.00  0.00    -0.294 OA
BRANCH   9  10
ATOM     10  C2  <0> d           0.002  -0.004   0.002  0.00  0.00     0.061 C 
ATOM     11  C1  <0> d          -0.019   1.526   0.010  0.00  0.00     0.046 C 
ATOM     12  C3  <0> d           0.742  -0.511   1.242  0.00  0.00     0.046 C 
ATOM     13  C4  <0> d          -1.433  -0.534   0.013  0.00  0.00     0.046 C 
ENDBRANCH   9  10
ENDBRANCH   6   9
ENDBRANCH   4   5
BRANCH   4  14
ATOM     14  C9  <0> d           4.382  -0.091  -4.068  0.00  0.00    -0.035 A 
ATOM     15  C14 <0> d           5.167   0.911  -4.606  0.00  0.00     0.009 A 
ATOM     16  C13 <0> d           5.489   0.891  -5.950  0.00  0.00     0.001 A 
ATOM     17  C12 <0> d           5.019  -0.128  -6.758  0.00  0.00     0.000 A 
ATOM     18  C11 <0> d           4.230  -1.128  -6.221  0.00  0.00     0.001 A 
ATOM     19  C10 <0> d           3.911  -1.109  -4.876  0.00  0.00     0.009 A 
ENDBRANCH   4  14
ENDBRANCH   1   4
TORSDOF 5
ENDMDL
MODEL ZINC58227990
REMARK  5 active torsions:
REMARK  status: ('A' for Active; 'I' for Inactive)
REMARK    1  A    between atoms: C2_2  and  C3_3 
REMARK    2  A    between atoms: C3_3  and  C4_4 
REMARK    3  A    between atoms: C7_7  and  C10_10 
REMARK       I    between atoms: C10_10  and  N1_12 
REMARK    4  A    between atoms: N1_12  and  C11_13 
REMARK    5  A    between atoms: C13_15  and  C17_20 
REMARK       I    between atoms: C17_20  and  N2_22 
ROOT
ATOM      1  C10 <0> d          -1.349  -6.288  -0.019  0.00  0.00     0.256 C 
ATOM      2  O1  <0> d          -1.350  -6.890  -1.075  0.00  0.00    -0.267 OA
ATOM      3  N1  <0> d          -1.340  -6.968   1.145  0.00  0.00    -0.320 N 
ATOM      4  H12 <0> d          -1.274  -6.489   1.986  0.00  0.00     0.169 HD
ENDROOT
BRANCH   3   5
ATOM      5  C11 <0> d          -1.427  -8.365   1.140  0.00  0.00     0.074 A 
ATOM      6  C16 <0> d          -2.107  -9.024   2.161  0.00  0.00     0.143 A 
ATOM      7  C15 <0> d          -2.200 -10.406   2.157  0.00  0.00     0.046 A 
ATOM      8  F1  <0> d          -2.682  -8.313   3.156  0.00  0.00    -0.204 F 
ATOM      9  C14 <0> d          -1.610 -11.137   1.148  0.00  0.00     0.020 A 
ATOM     10  C13 <0> d          -0.922 -10.485   0.122  0.00  0.00     0.034 A 
ATOM     11  C12 <0> d          -0.833  -9.092   0.122  0.00  0.00     0.050 A 
BRANCH  10  12
ATOM     12  C17 <0> d          -0.290 -11.268  -0.960  0.00  0.00     0.249 C 
ATOM     13  O2  <0> d           0.308 -10.698  -1.852  0.00  0.00    -0.268 OA
ATOM     14  N2  <0> d          -0.378 -12.613  -0.959  0.00  0.00    -0.366 N 
ATOM     15  H16 <0> d          -0.855 -13.067  -0.247  0.00  0.00     0.159 HD
ATOM     16  H17 <0> d           0.037 -13.126  -1.670  0.00  0.00     0.159 HD
ENDBRANCH  10  12
ENDBRANCH   3   5
BRANCH   1  17
ATOM     17  C7  <0> d          -1.357  -4.810  -0.012  0.00  0.00     0.032 A 
ATOM     18  C6  <0> d          -1.366  -4.103  -1.215  0.00  0.00     0.017 A 
ATOM     19  C5  <0> d          -1.374  -2.723  -1.201  0.00  0.00     0.008 A 
ATOM     20  C4  <0> d          -1.374  -2.041   0.003  0.00  0.00    -0.058 A 
ATOM     21  C9  <0> d          -1.359  -2.735   1.199  0.00  0.00     0.008 A 
ATOM     22  C8  <0> d          -1.356  -4.115   1.199  0.00  0.00     0.017 A 
BRANCH  20  23
ATOM     23  C3  <0> d          -1.383  -0.534   0.010  0.00  0.00     0.038 C 
BRANCH  23  24
ATOM     24  C2  <0> d           0.057  -0.015   0.001  0.00  0.00     0.000 C 
ATOM     25  C1  <0> d           0.048   1.515   0.008  0.00  0.00     0.005 C 
ENDBRANCH  23  24
ENDBRANCH  20  23
ENDBRANCH   1  17
TORSDOF 5
ENDMDL
MODEL ZINC58428183
REMARK  6 active torsions:
REMARK  status: ('A' for Active; 'I' for Inactive)
REMARK    1  A    between atoms: C2_2  and  O1_4 
REMARK    2  A    between atoms: O1_4  and  C4_5 
REMARK    3  A    between atoms: C4_5  and  C5_7 
REMARK    4  A    between atoms: C5_7  and  N1_8 
REMARK       I    between atoms: N1_8  and  C6_9 
REMARK    5  A    between atoms: C6_9  and  C7_11 
REMARK    6  A    between atoms: C12_19  and  C13_20 
ROOT
ATOM      1  C7  <0> d          -4.033  -5.535  -2.190  0.00  0.00     0.098 A 
ATOM      2  C8  <0> d          -2.907  -6.155  -2.760  0.00  0.00     0.160 A 
ATOM      3  N2  <0> d          -3.279  -7.284  -3.304  0.00  0.00    -0.177 NA
ATOM      4  N3  <0> d          -4.654  -7.460  -3.119  0.00  0.00    -0.214 N 
ATOM      5  C9  <0> d          -5.132  -6.385  -2.425  0.00  0.00     0.168 A 
ATOM      6  N4  <0> d          -6.423  -6.294  -2.105  0.00  0.00    -0.240 NA
ATOM      7  C10 <0> d          -7.279  -7.235  -2.442  0.00  0.00     0.121 A 
ATOM      8  C11 <0> d          -6.847  -8.358  -3.148  0.00  0.00     0.052 A 
ATOM      9  C12 <0> d          -5.513  -8.461  -3.494  0.00  0.00     0.072 A 
ENDROOT
BRANCH   1  10
ATOM     10  C6  <0> d          -4.058  -4.253  -1.480  0.00  0.00     0.257 C 
ATOM     11  N1  <0> d          -2.921  -3.544  -1.329  0.00  0.00    -0.347 N 
ATOM     12  H10 <0> d          -2.087  -3.883  -1.690  0.00  0.00     0.163 HD
ATOM     13  O3  <0> d          -5.104  -3.829  -1.026  0.00  0.00    -0.267 OA
BRANCH  11  14
ATOM     14  C5  <0> d          -2.946  -2.263  -0.619  0.00  0.00     0.233 C 
BRANCH  14  15
ATOM     15  C4  <0> d          -1.558  -1.678  -0.590  0.00  0.00     0.277 C 
ATOM     16  O2  <0> d          -0.641  -2.271  -1.109  0.00  0.00    -0.263 OA
BRANCH  15  17
ATOM     17  O1  <0> d          -1.339  -0.499   0.012  0.00  0.00    -0.316 OA
BRANCH  17  18
ATOM     18  C2  <0> d           0.002  -0.004   0.002  0.00  0.00     0.123 C 
ATOM     19  C1  <0> d          -0.019   1.526   0.010  0.00  0.00     0.040 C 
ATOM     20  C3  <0> d           0.742  -0.511   1.242  0.00  0.00     0.040 C 
ENDBRANCH  17  18
ENDBRANCH  15  17
ENDBRANCH  14  15
ENDBRANCH  11  14
ENDBRANCH   1  10
BRANCH   9  21
ATOM     21  C13 <0> d          -5.019  -9.636  -4.241  0.00  0.00    -0.007 A 
ATOM     22  C18 <0> d          -5.450  -9.868  -5.549  0.00  0.00     0.014 A 
ATOM     23  C17 <0> d          -4.981 -10.964  -6.242  0.00  0.00     0.001 A 
ATOM     24  C16 <0> d          -4.094 -11.839  -5.641  0.00  0.00     0.000 A 
ATOM     25  C15 <0> d          -3.667 -11.619  -4.343  0.00  0.00     0.001 A 
ATOM     26  C14 <0> d          -4.124 -10.523  -3.640  0.00  0.00     0.014 A 
ENDBRANCH   9  21
TORSDOF 6
ENDMDL
MODEL ZINC74958306
REMARK  5 active torsions:
REMARK  status: ('A' for Active; 'I' for Inactive)
REMARK    1  A    between atoms: C2_2  and  S1_3 
REMARK    2  A    between atoms: S1_3  and  C3_4 
REMARK    3  A    between atoms: C3_4  and  C8_10 
REMARK    4  A    between atoms: C8_10  and  N1_11 
REMARK       I    between atoms: N1_11  and  C9_12 
REMARK    5  A    between atoms: C9_12  and  C10_14 
ROOT
ATOM      1  N1  <0> d          -1.331  -2.538  -0.143  0.00  0.00    -0.355 N 
ATOM      2  C9  <0> d          -2.545  -3.000  -0.501  0.00  0.00     0.252 C 
ATOM      3  O2  <0> d          -3.147  -3.760   0.232  0.00  0.00    -0.268 OA
ATOM      4  H16 <0> d          -0.851  -1.931  -0.728  0.00  0.00     0.162 HD
ENDROOT
BRANCH   1   5
ATOM      5  C8  <0> d          -0.735  -2.954   1.130  0.00  0.00     0.143 C 
BRANCH   5   6
ATOM      6  C3  <0> d           0.640  -2.302   1.286  0.00  0.00     0.028 C 
ATOM      7  C7  <0> d           0.478  -0.782   1.388  0.00  0.00     0.048 C 
ATOM      8  C6  <0> d          -0.326  -0.446   2.646  0.00  0.00     0.169 C 
ATOM      9  O1  <0> d           0.338  -0.982   3.792  0.00  0.00    -0.391 OA
ATOM     10  C5  <0> d           0.475  -2.405   3.775  0.00  0.00     0.169 C 
ATOM     11  C4  <0> d           1.312  -2.820   2.562  0.00  0.00     0.048 C 
BRANCH   6  12
ATOM     12  S1  <0> d           1.671  -2.708  -0.150  0.00  0.00    -0.158 SA
BRANCH  12  13
ATOM     13  C2  <0> d           1.831  -4.514  -0.079  0.00  0.00     0.070 C 
ATOM     14  C1  <0> d           2.615  -5.004  -1.298  0.00  0.00     0.016 C 
ENDBRANCH  12  13
ENDBRANCH   6  12
ENDBRANCH   5   6
ENDBRANCH   1   5
BRANCH   2  15
ATOM     15  C10 <0> d          -3.146  -2.580  -1.785  0.00  0.00     0.043 A 
ATOM     16  C15 <0> d          -3.950  -1.441  -1.844  0.00  0.00    -0.046 A 
ATOM     17  C14 <0> d          -4.503  -1.052  -3.047  0.00  0.00     0.008 A 
ATOM     18  C16 <0> d          -4.209  -0.634  -0.598  0.00  0.00     0.049 C 
ATOM     19  C13 <0> d          -4.272  -1.795  -4.190  0.00  0.00     0.001 A 
ATOM     20  C12 <0> d          -3.480  -2.929  -4.138  0.00  0.00     0.008 A 
ATOM     21  C11 <0> d          -2.916  -3.325  -2.943  0.00  0.00    -0.046 A 
ATOM     22  C17 <0> d          -2.054  -4.560  -2.888  0.00  0.00     0.049 C 
ENDBRANCH   2  15
TORSDOF 5
ENDMDL
MODEL ZINC75106690
REMARK  6 active torsions:
REMARK  status: ('A' for Active; 'I' for Inactive)
REMARK    1  A    between atoms: C2_2  and  C3_3 
REMARK    2  A    between atoms: C2_2  and  C18_22 
REMARK    3  A    between atoms: C3_3  and  C4_4 
REMARK    4  A    between atoms: C3_3  and  N1_10 
REMARK       I    between atoms: N1_10  and  C10_11 
REMARK       I    between atoms: C10_11  and  N2_13 
REMARK    5  A    between atoms: N2_13  and  C11_14 
REMARK    6  A    between atoms: C18_22  and  O3_24 
ROOT
ATOM      1  C11 <0> d          -0.354  -0.868  -5.936  0.00  0.00     0.037 A 
ATOM      2  C12 <0> d          -0.358  -0.120  -7.107  0.00  0.00     0.029 A 
ATOM      3  C13 <0> d          -0.174  -0.740  -8.329  0.00  0.00     0.004 A 
ATOM      4  C14 <0> d           0.014  -2.106  -8.394  0.00  0.00     0.023 A 
ATOM      5  C15 <0> d           0.020  -2.866  -7.222  0.00  0.00     0.046 A 
ATOM      6  C16 <0> d          -0.160  -2.239  -5.989  0.00  0.00     0.052 A 
ATOM      7  C17 <0> d           0.215  -4.283  -7.286  0.00  0.00     0.099 C 
ATOM      8  N3  <0> d           0.369  -5.407  -7.337  0.00  0.00    -0.191 NA
ENDROOT
BRANCH   1   9
ATOM      9  N2  <0> d          -0.541  -0.235  -4.701  0.00  0.00    -0.309 N 
ATOM     10  C10 <0> d           0.112  -0.680  -3.610  0.00  0.00     0.321 C 
ATOM     11  N1  <0> d           0.005  -0.015  -2.442  0.00  0.00    -0.333 N 
ATOM     12  O1  <0> d           0.798  -1.681  -3.678  0.00  0.00    -0.247 OA
ATOM     13  H11 <0> d          -0.543   0.784  -2.388  0.00  0.00     0.165 HD
ATOM     14  H12 <0> d          -1.141   0.524  -4.631  0.00  0.00     0.170 HD
BRANCH  11  15
ATOM     15  C3  <0> d           0.715  -0.499  -1.256  0.00  0.00     0.132 C 
BRANCH  15  16
ATOM     16  C2  <0> d          -0.006  -0.015   0.004  0.00  0.00     0.109 C 
ATOM     17  C1  <0> d          -0.038   1.515   0.017  0.00  0.00     0.023 C 
BRANCH  16  18
ATOM     18  C18 <0> d           0.725  -0.512   1.224  0.00  0.00     0.264 C 
ATOM     19  O2  <0> d           1.720  -1.185   1.099  0.00  0.00    -0.265 OA
BRANCH  18  20
ATOM     20  O3  <0> d           0.269  -0.208   2.449  0.00  0.00    -0.326 OA
ATOM     21  C19 <0> d           1.011  -0.713   3.561  0.00  0.00     0.213 C 
ENDBRANCH  18  20
ENDBRANCH  16  18
ENDBRANCH  15  16
BRANCH  15  22
ATOM     22  C4  <0> d           2.125   0.033  -1.263  0.00  0.00    -0.035 A 
ATOM     23  C9  <0> d           3.172  -0.779  -0.869  0.00  0.00     0.009 A 
ATOM     24  C8  <0> d           4.466  -0.293  -0.879  0.00  0.00     0.001 A 
ATOM     25  C7  <0> d           4.712   1.008  -1.276  0.00  0.00     0.000 A 
ATOM     26  C6  <0> d           3.665   1.822  -1.665  0.00  0.00     0.001 A 
ATOM     27  C5  <0> d           2.371   1.334  -1.658  0.00  0.00     0.009 A 
ENDBRANCH  15  22
ENDBRANCH  11  15
ENDBRANCH   1   9
TORSDOF 6
ENDMDL
MODEL ZINC75157728
REMARK  7 active torsions:
REMARK  status: ('A' for Active; 'I' for Inactive)
REMARK    1  A    between atoms: C6_6  and  C8_8 
REMARK    2  A    between atoms: C8_8  and  C9_9 
REMARK       I    between atoms: C9_9  and  N1_11 
REMARK    3  A    between atoms: N1_11  and  C10_12 
REMARK    4  A    between atoms: C10_12  and  C11_13 
REMARK    5  A    between atoms: C11_13  and  C12_14 
REMARK    6  A    between atoms: C12_14  and  C13_15 
REMARK    7  A    between atoms: C12_14  and  O2_19 
ROOT
ATOM      1  C9  <0> d           1.480  -3.080   2.915  0.00  0.00     0.221 C 
ATOM      2  O1  <0> d           2.393  -2.670   2.230  0.00  0.00    -0.273 OA
ATOM      3  N1  <0> d           1.741  -3.745   4.058  0.00  0.00    -0.361 N 
ATOM      4  H11 <0> d           1.010  -4.073   4.605  0.00  0.00     0.162 HD
ENDROOT
BRANCH   3   5
ATOM      5  C10 <0> d           3.127  -3.974   4.472  0.00  0.00     0.125 C 
BRANCH   5   6
ATOM      6  C11 <0> d           3.144  -4.746   5.793  0.00  0.00     0.052 C 
BRANCH   6   7
ATOM      7  C12 <0> d           4.592  -4.984   6.226  0.00  0.00     0.127 C 
BRANCH   7   8
ATOM      8  C13 <0> d           4.611  -5.862   7.479  0.00  0.00    -0.025 C 
ATOM      9  C14 <0> d           3.943  -7.204   7.171  0.00  0.00     0.017 C 
ATOM     10  C15 <0> d           6.059  -6.101   7.911  0.00  0.00     0.017 C 
ATOM     11  C16 <0> d           3.851  -5.160   8.605  0.00  0.00     0.017 C 
ENDBRANCH   7   8
BRANCH   7  12
ATOM     12  O2  <0> d           5.216  -3.731   6.512  0.00  0.00    -0.395 OA
ATOM     13  H25 <0> d           4.786  -3.230   7.219  0.00  0.00     0.210 HD
ENDBRANCH   7  12
ENDBRANCH   6   7
ENDBRANCH   5   6
ENDBRANCH   3   5
BRANCH   1  14
ATOM     14  C8  <0> d           0.054  -2.845   2.489  0.00  0.00     0.141 C 
BRANCH  14  15
ATOM     15  C6  <0> d           0.037  -2.084   1.188  0.00  0.00    -0.049 A 
ATOM     16  C5  <0> d           0.040  -2.768  -0.013  0.00  0.00     0.007 A 
ATOM     17  C4  <0> d           0.025  -2.071  -1.207  0.00  0.00     0.001 A 
ATOM     18  C3  <0> d           0.006  -0.689  -1.199  0.00  0.00     0.007 A 
ATOM     19  C2  <0> d           0.002  -0.004   0.002  0.00  0.00    -0.061 A 
ATOM     20  C1  <0> d          -0.018   1.503   0.010  0.00  0.00     0.048 C 
ATOM     21  C7  <0> d           0.023  -0.702   1.195  0.00  0.00     0.014 A 
ENDBRANCH  14  15
ENDBRANCH   1  14
TORSDOF 7
ENDMDL
MODEL ZINC75400763
REMARK  6 active torsions:
REMARK  status: ('A' for Active; 'I' for Inactive)
REMARK    1  A    between atoms: C2_2  and  C4_4 
REMARK    2  A    between atoms: N3_8  and  C6_9 
REMARK    3  A    between atoms: C6_9  and  C7_10 
REMARK    4  A    between atoms: C7_10  and  N4_11 
REMARK       I    between atoms: N4_11  and  C8_12 
REMARK    5  A    between atoms: C8_12  and  C9_14 
REMARK    6  A    between atoms: C13_18  and  N5_20 
ROOT
ATOM      1  N4  <0> d          -0.592  -4.744  -0.062  0.00  0.00    -0.355 N 
ATOM      2  C8  <0> d          -0.186  -5.673  -0.949  0.00  0.00     0.251 C 
ATOM      3  O1  <0> d           0.955  -5.655  -1.369  0.00  0.00    -0.268 OA
ATOM      4  H12 <0> d          -1.503  -4.758   0.272  0.00  0.00     0.162 HD
ENDROOT
BRANCH   1   5
ATOM      5  C7  <0> d           0.340  -3.711   0.396  0.00  0.00     0.143 C 
BRANCH   5   6
ATOM      6  C6  <0> d          -0.368  -2.789   1.391  0.00  0.00     0.152 C 
BRANCH   6   7
ATOM      7  N3  <0> d           0.565  -1.757   1.849  0.00  0.00    -0.307 N 
ATOM      8  C4  <0> d           0.757  -0.530   1.263  0.00  0.00     0.132 A 
ATOM      9  N1  <0> d           1.649   0.120   1.938  0.00  0.00    -0.158 NA
ATOM     10  N2  <0> d           2.070  -0.691   3.001  0.00  0.00    -0.251 N 
ATOM     11  C5  <0> d           1.382  -1.849   2.917  0.00  0.00     0.196 A 
ATOM     12  H23 <0> d           2.732  -0.463   3.671  0.00  0.00     0.191 HD
ATOM     13  S1  <0> d           1.518  -3.188   3.976  0.00  0.00    -0.039 SA
BRANCH   8  14
ATOM     14  C2  <0> d           0.043  -0.022   0.037  0.00  0.00     0.049 C 
ATOM     15  C1  <0> d           0.034   1.508   0.049  0.00  0.00     0.018 C 
ATOM     16  C3  <0> d           0.766  -0.518  -1.217  0.00  0.00     0.018 C 
ENDBRANCH   8  14
ENDBRANCH   6   7
ENDBRANCH   5   6
ENDBRANCH   1   5
BRANCH   2  17
ATOM     17  C9  <0> d          -1.127  -6.716  -1.412  0.00  0.00     0.034 A 
ATOM     18  C14 <0> d          -0.708  -7.679  -2.329  0.00  0.00     0.046 A 
ATOM     19  C13 <0> d          -1.595  -8.657  -2.754  0.00  0.00     0.030 A 
ATOM     20  C12 <0> d          -2.899  -8.668  -2.274  0.00  0.00     0.029 A 
ATOM     21  C11 <0> d          -3.316  -7.709  -1.369  0.00  0.00     0.003 A 
ATOM     22  C10 <0> d          -2.439  -6.735  -0.936  0.00  0.00     0.017 A 
BRANCH  19  23
ATOM     23  N5  <0> d          -1.179  -9.628  -3.668  0.00  0.00    -0.390 N 
ATOM     24  C15 <0> d          -2.076 -10.730  -4.025  0.00  0.00     0.149 C 
ATOM     25  C16 <0> d           0.154  -9.545  -4.269  0.00  0.00     0.149 C 
ENDBRANCH  19  23
ENDBRANCH   2  17
TORSDOF 6
ENDMDL
MODEL ZINC75421756
REMARK  5 active torsions:
REMARK  status: ('A' for Active; 'I' for Inactive)
REMARK    1  A    between atoms: N1_2  and  C2_3 
REMARK       I    between atoms: N1_2  and  C5_7 
REMARK    2  A    between atoms: C2_3  and  C3_4 
REMARK    3  A    between atoms: C5_7  and  C6_9 
REMARK    4  A    between atoms: C6_9  and  N3_10 
REMARK    5  A    between atoms: C11_15  and  C13_17 
ROOT
ATOM      1  C3  <0> d          -1.411  -1.020   1.720  0.00  0.00     0.143 C 
ATOM      2  C4  <0> d          -1.388  -1.763   2.991  0.00  0.00     0.060 C 
ATOM      3  N2  <0> d          -1.371  -2.336   3.972  0.00  0.00    -0.197 NA
ENDROOT
BRANCH   1   4
ATOM      4  C2  <0> d           0.024  -0.743   1.267  0.00  0.00     0.139 C 
BRANCH   4   5
ATOM      5  N1  <0> d           0.002  -0.004   0.002  0.00  0.00    -0.354 N 
ATOM      6  C1  <0> d          -0.018   1.461   0.010  0.00  0.00     0.152 C 
ATOM      7  C5  <0> d           0.000  -0.672  -1.169  0.00  0.00     0.245 C 
ATOM      8  O1  <0> d           0.017  -1.884  -1.175  0.00  0.00    -0.272 OA
BRANCH   7   9
ATOM      9  C6  <0> d          -0.023   0.089  -2.470  0.00  0.00     0.337 C 
BRANCH   9  10
ATOM     10  N3  <0> d          -0.020  -0.860  -3.591  0.00  0.00    -0.061 N 
ATOM     11  C12 <0> d           0.078  -0.124  -4.856  0.00  0.00     0.256 C 
ATOM     12  C11 <0> d           0.022  -1.082  -6.038  0.00  0.00     0.076 A 
ATOM     13  C9  <0> d          -0.617  -2.454  -5.852  0.00  0.00     0.009 A 
ATOM     14  C10 <0> d           0.902  -2.323  -6.044  0.00  0.00     0.029 A 
ATOM     15  C8  <0> d          -1.082  -2.877  -4.457  0.00  0.00     0.034 C 
ATOM     16  C7  <0> d          -1.271  -1.634  -3.583  0.00  0.00     0.236 C 
ATOM     17  H19 <0> d           0.766  -1.485  -3.503  0.00  0.00     0.280 HD
BRANCH  12  18
ATOM     18  C13 <0> d          -0.204  -0.411  -7.369  0.00  0.00     0.184 C 
ATOM     19  O2  <0> d          -0.236   0.805  -7.441  0.00  0.00    -0.647 OA
ATOM     20  O3  <0> d          -0.355  -1.086  -8.373  0.00  0.00    -0.647 OA
ENDBRANCH  12  18
ENDBRANCH   9  10
ENDBRANCH   7   9
ENDBRANCH   4   5
ENDBRANCH   1   4
TORSDOF 5
ENDMDL
MODEL ZINC75463130
REMARK  6 active torsions:
REMARK  status: ('A' for Active; 'I' for Inactive)
REMARK    1  A    between atoms: C2_2  and  C4_4 
REMARK    2  A    between atoms: C4_4  and  C5_5 
REMARK    3  A    between atoms: C5_5  and  C6_6 
REMARK    4  A    between atoms: C5_5  and  N4_19 
REMARK       I    between atoms: C6_6  and  N1_8 
REMARK    5  A    between atoms: N1_8  and  C7_9 
REMARK       I    between atoms: N4_19  and  C14_20 
REMARK    6  A    between atoms: C14_20  and  C15_22 
ROOT
ATOM      1  C5  <0> d           2.133   0.083  -1.459  0.00  0.00     0.180 C 
ENDROOT
BRANCH   1   2
ATOM      2  C4  <0> d           0.686  -0.407  -1.383  0.00  0.00     0.038 C 
BRANCH   2   3
ATOM      3  C2  <0> d           0.671  -1.927  -1.208  0.00  0.00    -0.020 C 
ATOM      4  C1  <0> d           1.288  -2.290   0.144  0.00  0.00     0.009 C 
ATOM      5  C3  <0> d          -0.773  -2.432  -1.262  0.00  0.00     0.009 C 
ENDBRANCH   2   3
ENDBRANCH   1   2
BRANCH   1   6
ATOM      6  C6  <0> d           2.773  -0.433  -2.722  0.00  0.00     0.283 C 
ATOM      7  O1  <0> d           3.205   0.348  -3.548  0.00  0.00    -0.268 OA
ATOM      8  N1  <0> d           2.866  -1.742  -2.933  0.00  0.00    -0.026 NA
BRANCH   8   9
ATOM      9  C7  <0> d           3.519  -2.200  -3.998  0.00  0.00     0.708 A 
ATOM     10  N3  <0> d           3.582  -3.502  -4.383  0.00  0.00    -0.188 N 
ATOM     11  C13 <0> d           4.352  -3.578  -5.539  0.00  0.00     0.076 A 
ATOM     12  H12 <0> d           3.160  -4.249  -3.930  0.00  0.00     0.184 HD
ATOM     13  C8  <0> d           4.766  -2.279  -5.843  0.00  0.00     0.076 A 
ATOM     14  C12 <0> d           4.739  -4.634  -6.351  0.00  0.00     0.032 A 
ATOM     15  N2  <0> d           4.234  -1.441  -4.869  0.00  0.00    -0.188 N 
ATOM     16  C9  <0> d           5.561  -2.051  -6.957  0.00  0.00     0.032 A 
ATOM     17  H2  <0> d           4.353  -0.479  -4.820  0.00  0.00     0.184 HD
ATOM     18  C10 <0> d           5.941  -3.109  -7.759  0.00  0.00     0.002 A 
ATOM     19  C11 <0> d           5.531  -4.397  -7.457  0.00  0.00     0.002 A 
ENDBRANCH   8   9
ENDBRANCH   1   6
BRANCH   1  20
ATOM     20  N4  <0> d           2.153   1.548  -1.465  0.00  0.00    -0.344 N 
ATOM     21  C14 <0> d           2.030   2.229  -0.308  0.00  0.00     0.252 C 
ATOM     22  O2  <0> d           1.995   1.629   0.749  0.00  0.00    -0.268 OA
ATOM     23  H17 <0> d           2.255   2.028  -2.302  0.00  0.00     0.163 HD
BRANCH  21  24
ATOM     24  C15 <0> d           1.938   3.703  -0.325  0.00  0.00     0.032 A 
ATOM     25  C20 <0> d           1.811   4.411   0.872  0.00  0.00     0.020 A 
ATOM     26  C19 <0> d           1.732   5.787   0.852  0.00  0.00     0.043 A 
ATOM     27  C18 <0> d           1.767   6.468  -0.356  0.00  0.00     0.116 A 
ATOM     28  C17 <0> d           1.887   5.769  -1.548  0.00  0.00     0.043 A 
ATOM     29  F1  <0> d           1.684   7.816  -0.371  0.00  0.00    -0.206 F 
ATOM     30  C16 <0> d           1.973   4.394  -1.538  0.00  0.00     0.020 A 
ENDBRANCH  21  24
ENDBRANCH   1  20
TORSDOF 6
ENDMDL
MODEL ZINC75487947
REMARK  4 active torsions:
REMARK  status: ('A' for Active; 'I' for Inactive)
REMARK    1  A    between atoms: C7_7  and  N1_8 
REMARK       I    between atoms: N1_8  and  C8_9 
REMARK    2  A    between atoms: C8_9  and  C9_11 
REMARK    3  A    between atoms: C10_12  and  C16_21 
REMARK    4  A    between atoms: C16_21  and  N3_22 
ROOT
ATOM      1  C9  <0> d          -0.164   0.032   4.845  0.00  0.00     0.111 A 
ATOM      2  C10 <0> d          -0.249  -0.539   6.096  0.00  0.00     0.019 A 
ATOM      3  C11 <0> d          -0.336   0.494   7.016  0.00  0.00     0.042 A 
ATOM      4  C12 <0> d          -0.307   1.720   6.341  0.00  0.00     0.051 A 
ATOM      5  N2  <0> d          -0.193   1.403   4.989  0.00  0.00    -0.350 N 
ATOM      6  H1  <0> d          -0.145   2.046   4.264  0.00  0.00     0.166 HD
ATOM      7  C13 <0> d          -0.388   2.863   7.147  0.00  0.00     0.045 A 
ATOM      8  C14 <0> d          -0.487   2.741   8.488  0.00  0.00    -0.018 A 
ATOM      9  S1  <0> d          -0.473   0.971   8.720  0.00  0.00    -0.092 SA
ATOM     10  C15 <0> d          -0.584   3.827   9.528  0.00  0.00     0.056 C 
ENDROOT
BRANCH   1  11
ATOM     11  C8  <0> d          -0.056  -0.694   3.578  0.00  0.00     0.273 C 
ATOM     12  N1  <0> d           0.025  -0.015   2.417  0.00  0.00    -0.321 N 
ATOM     13  H8  <0> d           0.078   0.954   2.424  0.00  0.00     0.169 HD
ATOM     14  O1  <0> d          -0.040  -1.911   3.573  0.00  0.00    -0.266 OA
BRANCH  12  15
ATOM     15  C7  <0> d           0.033  -0.706   1.201  0.00  0.00     0.041 A 
ATOM     16  C2  <0> d          -0.586  -0.158   0.085  0.00  0.00    -0.034 A 
ATOM     17  C1  <0> d          -1.268   1.182   0.182  0.00  0.00     0.050 C 
ATOM     18  C3  <0> d          -0.571  -0.841  -1.116  0.00  0.00     0.032 A 
ATOM     19  C4  <0> d           0.054  -2.071  -1.206  0.00  0.00     0.034 A 
ATOM     20  C5  <0> d           0.667  -2.622  -0.094  0.00  0.00     0.026 A 
ATOM     21 Cl1  <0> d           0.071  -2.926  -2.717  0.00  0.00    -0.084 Cl
ATOM     22  C6  <0> d           0.655  -1.945   1.109  0.00  0.00     0.032 A 
ENDBRANCH  12  15
ENDBRANCH   1  11
BRANCH   2  23
ATOM     23  C16 <0> d          -0.247  -2.013   6.407  0.00  0.00     0.276 C 
BRANCH  23  24
ATOM     24  N3  <0> d           1.134  -2.469   6.612  0.00  0.00    -0.075 N 
ATOM     25  C17 <0> d           1.129  -3.877   7.032  0.00  0.00     0.269 C 
ATOM     26  C18 <0> d           1.886  -2.335   5.357  0.00  0.00     0.269 C 
ATOM     27  H21 <0> d           1.571  -1.907   7.327  0.00  0.00     0.279 HD
ENDBRANCH  23  24
ENDBRANCH   2  23
TORSDOF 4
ENDMDL
MODEL ZINC75569433
REMARK  3 active torsions:
REMARK  status: ('A' for Active; 'I' for Inactive)
REMARK    1  A    between atoms: C4_5  and  N2_7 
REMARK    2  A    between atoms: N2_7  and  C5_8 
REMARK    3  A    between atoms: C5_8  and  C6_9 
ROOT
ATOM      1  C1  <0> d          -0.018   1.503   0.010  0.00  0.00     0.100 C 
ATOM      2  C2  <0> d           0.002  -0.004   0.002  0.00  0.00     0.145 A 
ATOM      3  N1  <0> d           0.008  -0.745  -1.063  0.00  0.00    -0.213 NA
ATOM      4  C3  <0> d           0.027  -2.054  -0.684  0.00  0.00     0.190 A 
ATOM      5  C4  <0> d           0.033  -2.068   0.700  0.00  0.00     0.185 A 
ATOM      6  O1  <0> d           0.023  -0.782   1.096  0.00  0.00    -0.277 OA
ATOM      7  C9  <0> d           0.038  -3.194  -1.551  0.00  0.00     0.124 C 
ATOM      8  N3  <0> d           0.048  -4.099  -2.238  0.00  0.00    -0.190 NA
ENDROOT
BRANCH   5   9
ATOM      9  N2  <0> d           0.051  -3.182   1.513  0.00  0.00    -0.368 N 
ATOM     10  H4  <0> d           0.061  -4.069   1.121  0.00  0.00     0.161 HD
BRANCH   9  11
ATOM     11  C5  <0> d           0.055  -3.026   2.970  0.00  0.00     0.125 C 
BRANCH  11  12
ATOM     12  C6  <0> d           0.076  -4.405   3.631  0.00  0.00    -0.005 C 
ATOM     13  C7  <0> d           0.206  -4.242   5.147  0.00  0.00     0.011 C 
ATOM     14  C8  <0> d          -1.223  -5.146   3.307  0.00  0.00     0.011 C 
ENDBRANCH  11  12
ENDBRANCH   9  11
ENDBRANCH   5   9
TORSDOF 3
ENDMDL
MODEL ZINC75576688
REMARK  2 active torsions:
REMARK  status: ('A' for Active; 'I' for Inactive)
REMARK    1  A    between atoms: C7_7  and  C8_8 
REMARK    2  A    between atoms: C8_8  and  C9_9 
ROOT
ATOM      1  C1  <0> d          -0.090   1.680   0.135  0.00  0.00     0.010 C 
ATOM      2  C2  <0> d          -0.028   0.157  -0.000  0.00  0.00    -0.013 C 
ATOM      3  C3  <0> d          -1.448  -0.410  -0.037  0.00  0.00     0.009 C 
ATOM      4  C4  <0> d          -1.386  -1.933  -0.173  0.00  0.00    -0.018 C 
ATOM      5  C5  <0> d          -0.633  -2.521   1.022  0.00  0.00     0.009 C 
ATOM      6  C6  <0> d           0.788  -1.954   1.060  0.00  0.00    -0.013 C 
ATOM      7  C7  <0> d           0.725  -0.431   1.195  0.00  0.00     0.003 C 
ATOM      8  C10 <0> d           1.541  -2.541   2.255  0.00  0.00     0.010 C 
ATOM      9  C11 <0> d          -0.656  -2.301  -1.466  0.00  0.00     0.010 C 
ENDROOT
BRANCH   7  10
ATOM     10  C8  <0> d           2.146   0.137   1.232  0.00  0.00     0.118 C 
BRANCH  10  11
ATOM     11  C9  <0> d           2.878  -0.260  -0.024  0.00  0.00     0.172 C 
ATOM     12  O1  <0> d           2.292  -0.866  -0.906  0.00  0.00    -0.648 OA
ATOM     13  O2  <0> d           4.056   0.025  -0.159  0.00  0.00    -0.648 OA
ENDBRANCH  10  11
ENDBRANCH   7  10
TORSDOF 2
ENDMDL
MODEL ZINC75582590
REMARK  5 active torsions:
REMARK  status: ('A' for Active; 'I' for Inactive)
REMARK    1  A    between atoms: C2_2  and  C3_3 
REMARK    2  A    between atoms: C2_2  and  N1_12 
REMARK    3  A    between atoms: C3_3  and  C6_6 
REMARK       I    between atoms: N1_12  and  C12_13 
REMARK    4  A    between atoms: C12_13  and  C13_15 
REMARK    5  A    between atoms: C13_15  and  C14_16 
ROOT
ATOM      1  N1  <0> d           0.499  -0.287   1.626  0.00  0.00    -0.356 N 
ATOM      2  C12 <0> d           1.826  -0.371   1.843  0.00  0.00     0.222 C 
ATOM      3  O1  <0> d           2.602  -0.196   0.927  0.00  0.00    -0.273 OA
ATOM      4  H16 <0> d          -0.122  -0.427   2.358  0.00  0.00     0.162 HD
ENDROOT
BRANCH   1   5
ATOM      5  C2  <0> d          -0.007   0.018   0.285  0.00  0.00     0.092 C 
ATOM      6  C1  <0> d          -0.025   1.533   0.079  0.00  0.00     0.033 C 
BRANCH   5   7
ATOM      7  C3  <0> d          -1.427  -0.534   0.139  0.00  0.00    -0.000 C 
ATOM      8  C4  <0> d          -2.315   0.044   1.242  0.00  0.00     0.022 C 
ATOM      9  C5  <0> d          -1.988  -0.139  -1.228  0.00  0.00     0.022 C 
BRANCH   7  10
ATOM     10  C6  <0> d          -1.396  -2.037   0.254  0.00  0.00    -0.048 A 
ATOM     11  C11 <0> d          -2.579  -2.752   0.283  0.00  0.00     0.008 A 
ATOM     12  C10 <0> d          -2.551  -4.130   0.385  0.00  0.00     0.001 A 
ATOM     13  C9  <0> d          -1.340  -4.793   0.465  0.00  0.00     0.000 A 
ATOM     14  C8  <0> d          -0.158  -4.077   0.441  0.00  0.00     0.001 A 
ATOM     15  C7  <0> d          -0.186  -2.699   0.335  0.00  0.00     0.008 A 
ENDBRANCH   7  10
ENDBRANCH   5   7
ENDBRANCH   1   5
BRANCH   2  16
ATOM     16  C13 <0> d           2.347  -0.684   3.222  0.00  0.00     0.141 C 
BRANCH  16  17
ATOM     17  C14 <0> d           3.853  -0.721   3.194  0.00  0.00    -0.049 A 
ATOM     18  C19 <0> d           4.577   0.432   3.434  0.00  0.00     0.011 A 
ATOM     19  C18 <0> d           5.958   0.398   3.414  0.00  0.00     0.043 A 
ATOM     20  C17 <0> d           6.617  -0.789   3.142  0.00  0.00     0.116 A 
ATOM     21  C16 <0> d           5.891  -1.942   2.897  0.00  0.00     0.043 A 
ATOM     22  F1  <0> d           7.967  -0.822   3.117  0.00  0.00    -0.206 F 
ATOM     23  C15 <0> d           4.510  -1.907   2.923  0.00  0.00     0.011 A 
ENDBRANCH  16  17
ENDBRANCH   2  16
TORSDOF 5
ENDMDL
MODEL ZINC75795284
REMARK  2 active torsions:
REMARK  status: ('A' for Active; 'I' for Inactive)
REMARK    1  A    between atoms: C3_4  and  C5_7 
REMARK    2  A    between atoms: C10_12  and  O1_17 
ROOT
ATOM      1  C5  <0> d           0.042  -3.320  -1.519  0.00  0.00     0.304 C 
ATOM      2  C6  <0> d          -1.240  -4.084  -1.310  0.00  0.00    -0.010 A 
ATOM      3  C7  <0> d          -2.428  -3.371  -1.236  0.00  0.00     0.013 A 
ATOM      4  C8  <0> d          -3.628  -4.028  -1.049  0.00  0.00     0.046 A 
ATOM      5  C9  <0> d          -3.650  -5.406  -0.936  0.00  0.00     0.149 A 
ATOM      6  C10 <0> d          -2.464  -6.121  -1.009  0.00  0.00     0.111 A 
ATOM      7  C11 <0> d          -1.256  -5.457  -1.194  0.00  0.00    -0.011 A 
ATOM      8  C12 <0> d           0.010  -6.272  -1.256  0.00  0.00     0.072 C 
ATOM      9  C13 <0> d           1.139  -5.438  -1.863  0.00  0.00     0.275 C 
ATOM     10  N3  <0> d           1.194  -4.149  -1.155  0.00  0.00     0.098 N 
ATOM     11  F1  <0> d          -4.822  -6.053  -0.756  0.00  0.00    -0.203 F 
ATOM     12  H13 <0> d           2.061  -3.670  -1.350  0.00  0.00     0.317 HD
ENDROOT
BRANCH   1  13
ATOM     13  C3  <0> d           0.028  -2.081  -0.660  0.00  0.00     0.063 A 
ATOM     14  C2  <0> d           0.008  -0.810  -1.104  0.00  0.00     0.118 A 
ATOM     15  N1  <0> d           0.002  -0.004   0.002  0.00  0.00    -0.355 N 
ATOM     16  C1  <0> d          -0.018   1.461   0.010  0.00  0.00     0.156 C 
ATOM     17  C4  <0> d           0.024  -0.811   1.085  0.00  0.00     0.182 A 
ATOM     18  N2  <0> d           0.034  -2.052   0.681  0.00  0.00    -0.352 N 
ATOM     19  H15 <0> d           0.048  -2.831   1.260  0.00  0.00     0.166 HD
ENDBRANCH   1  13
BRANCH   6  20
ATOM     20  O1  <0> d          -2.482  -7.476  -0.899  0.00  0.00    -0.357 OA
ATOM     21  H14 <0> d          -2.583  -7.938  -1.743  0.00  0.00     0.217 HD
ENDBRANCH   6  20
TORSDOF 2
ENDMDL
MODEL ZINC75799054
REMARK  5 active torsions:
REMARK  status: ('A' for Active; 'I' for Inactive)
REMARK    1  A    between atoms: C3_3  and  C7_8 
REMARK    2  A    between atoms: C5_5  and  O1_7 
REMARK    3  A    between atoms: C8_9  and  C9_10 
REMARK    4  A    between atoms: C11_12  and  O3_21 
REMARK    5  A    between atoms: C14_15  and  O2_20 
ROOT
ATOM      1  C9  <0> d           4.930   4.266  -0.024  0.00  0.00     0.279 C 
ATOM      2  C10 <0> d           4.933   5.220  -1.189  0.00  0.00     0.021 A 
ATOM      3  C11 <0> d           4.449   4.770  -2.414  0.00  0.00     0.075 A 
ATOM      4  C12 <0> d           4.436   5.612  -3.514  0.00  0.00     0.040 A 
ATOM      5  C13 <0> d           4.907   6.905  -3.396  0.00  0.00     0.040 A 
ATOM      6  C14 <0> d           5.387   7.355  -2.178  0.00  0.00     0.072 A 
ATOM      7  C15 <0> d           5.399   6.511  -1.071  0.00  0.00    -0.012 A 
ATOM      8  C16 <0> d           5.920   7.048   0.237  0.00  0.00     0.072 C 
ATOM      9  C17 <0> d           6.234   5.892   1.187  0.00  0.00     0.275 C 
ATOM     10  N1  <0> d           5.064   5.003   1.237  0.00  0.00     0.096 N 
ATOM     11  H15 <0> d           4.222   5.520   1.445  0.00  0.00     0.317 HD
ENDROOT
BRANCH   1  12
ATOM     12  C8  <0> d           3.636   3.494  -0.015  0.00  0.00     0.014 C 
ATOM     13  C7  <0> d           3.656   2.169  -0.022  0.00  0.00     0.010 C 
BRANCH  13  14
ATOM     14  C3  <0> d           2.386   1.411  -0.013  0.00  0.00    -0.034 A 
ATOM     15  C2  <0> d           1.167   2.089   0.002  0.00  0.00     0.011 A 
ATOM     16  C1  <0> d          -0.017   1.378   0.010  0.00  0.00     0.004 A 
ATOM     17  C6  <0> d           0.002  -0.004   0.002  0.00  0.00     0.036 A 
ATOM     18  C5  <0> d           1.211  -0.687  -0.013  0.00  0.00     0.066 A 
ATOM     19  C4  <0> d           2.404   0.016  -0.021  0.00  0.00     0.047 A 
BRANCH  18  20
ATOM     20  O1  <0> d           1.224  -2.046  -0.021  0.00  0.00    -0.361 OA
ATOM     21  H6  <0> d           1.236  -2.444   0.861  0.00  0.00     0.217 HD
ENDBRANCH  18  20
ENDBRANCH  13  14
ENDBRANCH   1  12
BRANCH   3  22
ATOM     22  O3  <0> d           3.986   3.497  -2.532  0.00  0.00    -0.360 OA
ATOM     23  H17 <0> d           3.042   3.403  -2.346  0.00  0.00     0.217 HD
ENDBRANCH   3  22
BRANCH   6  24
ATOM     24  O2  <0> d           5.851   8.628  -2.062  0.00  0.00    -0.360 OA
ATOM     25  H16 <0> d           5.174   9.272  -1.810  0.00  0.00     0.217 HD
ENDBRANCH   6  24
TORSDOF 5
ENDMDL
MODEL ZINC20209239
REMARK  7 active torsions:
REMARK  status: ('A' for Active; 'I' for Inactive)
REMARK    1  A    between atoms: S1_2  and  N1_5 
REMARK    2  A    between atoms: N1_5  and  C2_6 
REMARK    3  A    between atoms: N1_5  and  C12_22 
REMARK    4  A    between atoms: C2_6  and  C3_7 
REMARK       I    between atoms: C3_7  and  N2_9 
REMARK    5  A    between atoms: N2_9  and  N3_10 
REMARK    6  A    between atoms: C4_11  and  C5_12 
REMARK    7  A    between atoms: C10_17  and  C11_18 
ROOT
ATOM      1  C3  <0> d           2.723  -2.037  -0.842  0.00  0.00     0.256 C 
ATOM      2  O3  <0> d           1.826  -2.853  -0.845  0.00  0.00    -0.270 OA
ATOM      3  N2  <0> d           3.994  -2.433  -0.631  0.00  0.00    -0.246 N 
ATOM      4  H6  <0> d           4.711  -1.780  -0.628  0.00  0.00     0.192 HD
ENDROOT
BRANCH   1   5
ATOM      5  C2  <0> d           2.416  -0.579  -1.073  0.00  0.00     0.246 C 
BRANCH   5   6
ATOM      6  N1  <0> d           0.975  -0.409  -1.275  0.00  0.00    -0.266 N 
BRANCH   6   7
ATOM      7  S1  <0> d           0.002  -0.004   0.002  0.00  0.00     0.229 S 
ATOM      8  C1  <0> d          -0.022   1.810   0.012  0.00  0.00     0.186 C 
ATOM      9  O1  <0> d           0.687  -0.491   1.148  0.00  0.00    -0.206 OA
ATOM     10  O2  <0> d          -1.280  -0.509  -0.345  0.00  0.00    -0.206 OA
ENDBRANCH   6   7
BRANCH   6  11
ATOM     11  C12 <0> d           0.422  -0.590  -2.546  0.00  0.00     0.067 A 
ATOM     12  C17 <0> d           0.221   0.504  -3.380  0.00  0.00     0.061 A 
ATOM     13  C16 <0> d          -0.322   0.321  -4.637  0.00  0.00     0.026 A 
ATOM     14 Cl1  <0> d           0.658   2.097  -2.845  0.00  0.00    -0.082 Cl
ATOM     15  C15 <0> d          -0.675  -0.946  -5.062  0.00  0.00     0.002 A 
ATOM     16  C14 <0> d          -0.482  -2.036  -4.232  0.00  0.00     0.002 A 
ATOM     17  C13 <0> d           0.066  -1.861  -2.976  0.00  0.00     0.032 A 
ENDBRANCH   6  11
ENDBRANCH   5   6
ENDBRANCH   1   5
BRANCH   3  18
ATOM     18  N3  <0> d           4.279  -3.787  -0.416  0.00  0.00    -0.184 NA
ATOM     19  C4  <0> d           5.502  -4.169  -0.213  0.00  0.00     0.151 C 
BRANCH  19  20
ATOM     20  C5  <0> d           5.802  -5.595   0.014  0.00  0.00    -0.002 A 
ATOM     21  C10 <0> d           4.772  -6.538   0.010  0.00  0.00     0.059 A 
ATOM     22  C9  <0> d           5.060  -7.871   0.217  0.00  0.00     0.017 A 
ATOM     23  C8  <0> d           6.365  -8.273   0.439  0.00  0.00     0.001 A 
ATOM     24  C7  <0> d           7.391  -7.344   0.450  0.00  0.00     0.001 A 
ATOM     25  C6  <0> d           7.117  -6.008   0.238  0.00  0.00     0.014 A 
BRANCH  21  26
ATOM     26  C11 <0> d           3.349  -6.101  -0.224  0.00  0.00     0.418 C 
ATOM     27  F1  <0> d           2.505  -7.216  -0.182  0.00  0.00    -0.166 F 
ATOM     28  F2  <0> d           2.970  -5.191   0.769  0.00  0.00    -0.166 F 
ATOM     29  F3  <0> d           3.250  -5.489  -1.478  0.00  0.00    -0.166 F 
ENDBRANCH  21  26
ENDBRANCH  19  20
ENDBRANCH   3  18
TORSDOF 7
ENDMDL
MODEL ZINC75903975
REMARK  3 active torsions:
REMARK  status: ('A' for Active; 'I' for Inactive)
REMARK    1  A    between atoms: C6_6  and  C8_9 
REMARK    2  A    between atoms: C9_12  and  C10_14 
REMARK    3  A    between atoms: C10_14  and  N3_15 
ROOT
ATOM      1  C8  <0> d           0.054  -2.850   2.458  0.00  0.00     0.205 A 
ATOM      2  N1  <0> d           0.047  -2.336   3.666  0.00  0.00    -0.121 NA
ATOM      3  N2  <0> d           0.066  -3.288   4.531  0.00  0.00    -0.125 NA
ATOM      4  C9  <0> d           0.085  -4.437   3.915  0.00  0.00     0.194 A 
ATOM      5  O1  <0> d           0.072  -4.191   2.594  0.00  0.00    -0.271 OA
ENDROOT
BRANCH   1   6
ATOM      6  C6  <0> d           0.037  -2.098   1.185  0.00  0.00     0.059 A 
ATOM      7  C5  <0> d           0.040  -2.780  -0.032  0.00  0.00     0.038 A 
ATOM      8  C4  <0> d           0.025  -2.072  -1.217  0.00  0.00     0.012 A 
ATOM      9  C3  <0> d           0.006  -0.688  -1.200  0.00  0.00     0.029 A 
ATOM     10 Br1  <0> d           0.028  -2.995  -2.867  0.00  0.00    -0.051 Br
ATOM     11  C2  <0> d           0.002  -0.004   0.002  0.00  0.00    -0.021 A 
ATOM     12  C1  <0> d          -0.018   1.503   0.010  0.00  0.00     0.051 C 
ATOM     13  C7  <0> d           0.023  -0.700   1.196  0.00  0.00     0.137 A 
ATOM     14  F1  <0> d           0.025  -0.032   2.370  0.00  0.00    -0.204 F 
ENDBRANCH   1   6
BRANCH   4  15
ATOM     15  C10 <0> d           0.110  -5.795   4.567  0.00  0.00     0.317 C 
BRANCH  15  16
ATOM     16  N3  <0> d          -1.267  -6.262   4.781  0.00  0.00    -0.072 N 
ATOM     17  H8  <0> d          -1.753  -5.611   5.379  0.00  0.00     0.274 HD
ATOM     18  H9  <0> d          -1.743  -6.323   3.894  0.00  0.00     0.274 HD
ATOM     19  H10 <0> d          -1.250  -7.171   5.218  0.00  0.00     0.274 HD
ENDBRANCH  15  16
ENDBRANCH   4  15
TORSDOF 3
ENDMDL
MODEL ZINC75909895
REMARK  3 active torsions:
REMARK  status: ('A' for Active; 'I' for Inactive)
REMARK    1  A    between atoms: C2_2  and  C5_5 
REMARK    2  A    between atoms: C5_5  and  N1_6 
REMARK       I    between atoms: N1_6  and  C6_7 
REMARK    3  A    between atoms: C6_7  and  C7_9 
ROOT
ATOM      1  N1  <0> d           2.093   0.010  -1.267  0.00  0.00    -0.356 N 
ATOM      2  C6  <0> d           2.917  -0.299  -2.288  0.00  0.00     0.251 C 
ATOM      3  O1  <0> d           2.520  -0.999  -3.199  0.00  0.00    -0.268 OA
ATOM      4  H12 <0> d           2.409   0.568  -0.540  0.00  0.00     0.162 HD
ENDROOT
BRANCH   2   5
ATOM      5  C7  <0> d           4.303   0.212  -2.298  0.00  0.00     0.035 A 
ATOM      6  C12 <0> d           5.159  -0.106  -3.354  0.00  0.00     0.062 A 
ATOM      7  C11 <0> d           6.452   0.379  -3.362  0.00  0.00     0.155 A 
ATOM      8  C10 <0> d           6.902   1.173  -2.315  0.00  0.00     0.154 A 
ATOM      9  F1  <0> d           7.280   0.078  -4.385  0.00  0.00    -0.203 F 
ATOM     10  C9  <0> d           6.057   1.486  -1.263  0.00  0.00     0.046 A 
ATOM     11  F2  <0> d           8.170   1.641  -2.323  0.00  0.00    -0.203 F 
ATOM     12  C8  <0> d           4.763   1.011  -1.249  0.00  0.00     0.020 A 
ENDBRANCH   2   5
BRANCH   1  13
ATOM     13  C5  <0> d           0.718  -0.497  -1.257  0.00  0.00     0.131 C 
BRANCH  13  14
ATOM     14  C2  <0> d           0.002  -0.004   0.002  0.00  0.00    -0.035 C 
ATOM     15  C1  <0> d          -0.019   1.526   0.010  0.00  0.00     0.016 C 
ATOM     16  C3  <0> d           0.742  -0.511   1.242  0.00  0.00     0.016 C 
ATOM     17  C4  <0> d          -1.433  -0.534   0.013  0.00  0.00     0.016 C 
ENDBRANCH  13  14
ENDBRANCH   1  13
TORSDOF 3
ENDMDL
MODEL ZINC75914163
REMARK  6 active torsions:
REMARK  status: ('A' for Active; 'I' for Inactive)
REMARK    1  A    between atoms: C4_4  and  C9_12 
REMARK    2  A    between atoms: C6_6  and  O1_7 
REMARK    3  A    between atoms: O1_7  and  C7_8 
REMARK    4  A    between atoms: C7_8  and  C8_9 
REMARK    5  A    between atoms: C8_9  and  O2_10 
REMARK    6  A    between atoms: O2_10  and  N1_11 
ROOT
ATOM      1  C1  <0> d          -0.017   1.383   0.010  0.00  0.00     0.038 A 
ATOM      2  C2  <0> d           1.171   2.089   0.002  0.00  0.00     0.027 A 
ATOM      3  C3  <0> d           2.378   1.414  -0.013  0.00  0.00     0.049 A 
ATOM      4  C4  <0> d           2.399   0.030  -0.021  0.00  0.00     0.072 A 
ATOM      5  C5  <0> d           1.214  -0.680  -0.013  0.00  0.00     0.054 A 
ATOM      6  C6  <0> d           0.002  -0.004   0.002  0.00  0.00     0.069 A 
ATOM      7 Cl1  <0> d           3.869   2.303  -0.023  0.00  0.00    -0.083 Cl
ENDROOT
BRANCH   6   8
ATOM      8  O1  <0> d          -1.165  -0.701   0.010  0.00  0.00    -0.349 OA
BRANCH   8   9
ATOM      9  C7  <0> d          -2.375   0.060   0.026  0.00  0.00     0.203 C 
BRANCH   9  10
ATOM     10  C8  <0> d          -3.574  -0.889   0.033  0.00  0.00     0.220 C 
BRANCH  10  11
ATOM     11  O2  <0> d          -3.583  -1.637   1.250  0.00  0.00    -0.306 OA
BRANCH  11  12
ATOM     12  N1  <0> d          -4.695  -2.581   1.361  0.00  0.00    -0.215 NA
ATOM     13  H8  <0> d          -4.709  -3.217   0.578  0.00  0.00     0.150 HD
ATOM     14  H9  <0> d          -4.657  -3.084   2.235  0.00  0.00     0.150 HD
ENDBRANCH  11  12
ENDBRANCH  10  11
ENDBRANCH   9  10
ENDBRANCH   8   9
ENDBRANCH   6   8
BRANCH   4  15
ATOM     15  C9  <0> d           3.715  -0.703  -0.038  0.00  0.00     0.419 C 
ATOM     16  F1  <0> d           3.481  -2.083  -0.043  0.00  0.00    -0.166 F 
ATOM     17  F2  <0> d           4.432  -0.348  -1.185  0.00  0.00    -0.166 F 
ATOM     18  F3  <0> d           4.455  -0.360   1.099  0.00  0.00    -0.166 F 
ENDBRANCH   4  15
TORSDOF 6
ENDMDL
MODEL ZINC76044597
REMARK  4 active torsions:
REMARK  status: ('A' for Active; 'I' for Inactive)
REMARK    1  A    between atoms: C3_3  and  C11_16 
REMARK       I    between atoms: N1_4  and  C5_6 
REMARK    2  A    between atoms: C5_6  and  C6_8 
REMARK    3  A    between atoms: C6_8  and  C7_9 
REMARK    4  A    between atoms: C12_18  and  C13_21 
ROOT
ATOM      1  C1  <0> d          -0.019   1.545   0.011  0.00  0.00     0.022 C 
ATOM      2  C2  <0> d           1.497   1.877  -0.002  0.00  0.00     0.035 C 
ATOM      3  C3  <0> d           2.105   0.750   0.860  0.00  0.00     0.161 C 
ATOM      4  N1  <0> d           1.153  -0.370   0.847  0.00  0.00    -0.340 N 
ATOM      5  C4  <0> d           0.002  -0.004   0.002  0.00  0.00     0.127 C 
ATOM      6  C5  <0> d           1.308  -1.540   1.499  0.00  0.00     0.220 C 
ATOM      7  O1  <0> d           2.301  -1.734   2.168  0.00  0.00    -0.273 OA
ENDROOT
BRANCH   3   8
ATOM      8  C11 <0> d           3.424   0.314   0.276  0.00  0.00     0.178 A 
ATOM      9  N3  <0> d           3.575  -0.397  -0.804  0.00  0.00    -0.109 NA
ATOM     10  O4  <0> d           4.973  -0.569  -0.983  0.00  0.00    -0.196 OA
ATOM     11  C12 <0> d           5.561   0.065   0.040  0.00  0.00     0.177 A 
ATOM     12  N2  <0> d           4.629   0.589   0.786  0.00  0.00    -0.206 NA
BRANCH  11  13
ATOM     13  C13 <0> d           7.045   0.156   0.286  0.00  0.00     0.065 A 
ATOM     14  C15 <0> d           7.812  -1.154   0.479  0.00  0.00     0.013 A 
ATOM     15  C14 <0> d           7.977  -0.354  -0.815  0.00  0.00     0.013 A 
ENDBRANCH  11  13
ENDBRANCH   3   8
BRANCH   6  16
ATOM     16  C6  <0> d           0.248  -2.606   1.397  0.00  0.00     0.108 C 
BRANCH  16  17
ATOM     17  C7  <0> d           0.667  -3.822   2.225  0.00  0.00     0.009 C 
ATOM     18  C10 <0> d          -0.347  -4.970   2.001  0.00  0.00     0.145 C 
ATOM     19  S1  <0> d          -0.335  -5.843   3.619  0.00  0.00     0.144 S 
ATOM     20  C9  <0> d           0.819  -4.747   4.548  0.00  0.00     0.140 C 
ATOM     21  O2  <0> d           0.272  -7.117   3.453  0.00  0.00    -0.228 OA
ATOM     22  O3  <0> d          -1.627  -5.754   4.202  0.00  0.00    -0.228 OA
ATOM     23  C8  <0> d           0.703  -3.439   3.714  0.00  0.00     0.021 C 
ENDBRANCH  16  17
ENDBRANCH   6  16
TORSDOF 4
ENDMDL
MODEL ZINC76207181
REMARK  2 active torsions:
REMARK  status: ('A' for Active; 'I' for Inactive)
REMARK    1  A    between atoms: C3_3  and  C12_15 
REMARK    2  A    between atoms: C4_4  and  C6_8 
ROOT
ATOM      1  C1  <0> d          -0.013   1.086   0.008  0.00  0.00     0.045 C 
ATOM      2  C2  <0> d          -0.753   1.593  -1.232  0.00  0.00     0.161 A 
ATOM      3  C3  <0> d          -2.172   1.077  -1.233  0.00  0.00    -0.004 A 
ATOM      4  C4  <0> d          -2.982   2.169  -1.207  0.00  0.00     0.039 A 
ATOM      5  C5  <0> d          -2.138   3.374  -1.188  0.00  0.00     0.169 A 
ATOM      6  O1  <0> d          -0.835   3.020  -1.203  0.00  0.00    -0.324 OA
ATOM      7  N1  <0> d          -2.581   4.599  -1.161  0.00  0.00    -0.277 NA
ATOM      8  H4  <0> d          -3.536   4.769  -1.152  0.00  0.00     0.189 HD
ENDROOT
BRANCH   4   9
ATOM      9  C6  <0> d          -4.462   2.148  -1.199  0.00  0.00     0.018 A 
ATOM     10  C11 <0> d          -5.175   2.474  -2.355  0.00  0.00     0.127 A 
ATOM     11  C10 <0> d          -6.557   2.448  -2.341  0.00  0.00     0.043 A 
ATOM     12  F1  <0> d          -4.515   2.809  -3.486  0.00  0.00    -0.205 F 
ATOM     13  C9  <0> d          -7.232   2.111  -1.182  0.00  0.00     0.003 A 
ATOM     14  C8  <0> d          -6.531   1.793  -0.032  0.00  0.00     0.001 A 
ATOM     15  C7  <0> d          -5.152   1.809  -0.034  0.00  0.00     0.015 A 
ENDBRANCH   4   9
BRANCH   3  16
ATOM     16  C12 <0> d          -2.596  -0.331  -1.259  0.00  0.00    -0.026 A 
ATOM     17  C17 <0> d          -3.295  -0.835  -2.362  0.00  0.00     0.012 A 
ATOM     18  C16 <0> d          -3.684  -2.157  -2.380  0.00  0.00     0.001 A 
ATOM     19  C15 <0> d          -3.395  -2.983  -1.308  0.00  0.00     0.000 A 
ATOM     20  C14 <0> d          -2.708  -2.491  -0.211  0.00  0.00     0.001 A 
ATOM     21  C13 <0> d          -2.307  -1.172  -0.179  0.00  0.00     0.012 A 
ENDBRANCH   3  16
TORSDOF 2
ENDMDL
MODEL ZINC76233206
REMARK  6 active torsions:
REMARK  status: ('A' for Active; 'I' for Inactive)
REMARK    1  A    between atoms: C3_3  and  C17_22 
REMARK    2  A    between atoms: C4_4  and  C9_12 
REMARK    3  A    between atoms: N2_8  and  C6_9 
REMARK    4  A    between atoms: C13_16  and  O3_20 
REMARK    5  A    between atoms: C14_17  and  O2_18 
REMARK    6  A    between atoms: C17_22  and  O5_24 
ROOT
ATOM      1  C1  <0> d           0.241   1.498   0.061  0.00  0.00     0.069 C 
ATOM      2  C2  <0> d           0.185  -0.008   0.026  0.00  0.00     0.027 A 
ATOM      3  C3  <0> d           0.032  -0.640  -1.157  0.00  0.00     0.067 A 
ATOM      4  C4  <0> d          -0.019  -2.154  -1.147  0.00  0.00     0.164 A 
ATOM      5  N1  <0> d           0.102  -2.817   0.163  0.00  0.00    -0.330 N 
ATOM      6  C5  <0> d           0.250  -2.047   1.260  0.00  0.00     0.323 A 
ATOM      7  O1  <0> d           0.350  -2.585   2.345  0.00  0.00    -0.247 OA
ATOM      8  N2  <0> d           0.294  -0.711   1.192  0.00  0.00    -0.299 N 
ATOM      9  H5  <0> d           0.076  -3.784   0.234  0.00  0.00     0.165 HD
ENDROOT
BRANCH   4  10
ATOM     10  C9  <0> d           1.092  -2.663  -2.028  0.00  0.00     0.005 A 
ATOM     11  C14 <0> d           1.062  -3.966  -2.499  0.00  0.00     0.110 A 
ATOM     12  C13 <0> d           2.086  -4.430  -3.318  0.00  0.00     0.102 A 
ATOM     13  C12 <0> d           3.138  -3.592  -3.650  0.00  0.00     0.039 A 
ATOM     14  C11 <0> d           3.166  -2.295  -3.172  0.00  0.00     0.003 A 
ATOM     15  C10 <0> d           2.145  -1.831  -2.363  0.00  0.00     0.012 A 
BRANCH  11  16
ATOM     16  O2  <0> d           0.030  -4.786  -2.166  0.00  0.00    -0.352 OA
ATOM     17  C15 <0> d          -1.053  -4.876  -3.094  0.00  0.00     0.210 C 
ENDBRANCH  11  16
BRANCH  12  18
ATOM     18  O3  <0> d           2.058  -5.706  -3.788  0.00  0.00    -0.353 OA
ATOM     19  C16 <0> d           3.146  -6.117  -4.618  0.00  0.00     0.210 C 
ENDBRANCH  12  18
ENDBRANCH   4  10
BRANCH   3  20
ATOM     20  C17 <0> d          -0.076   0.087  -2.366  0.00  0.00     0.293 C 
ATOM     21  O4  <0> d           0.078   1.294  -2.366  0.00  0.00    -0.259 OA
BRANCH  20  22
ATOM     22  O5  <0> d          -0.350  -0.558  -3.519  0.00  0.00    -0.323 OA
ATOM     23  C18 <0> d          -0.334   0.220  -4.717  0.00  0.00     0.213 C 
ENDBRANCH  20  22
ENDBRANCH   3  20
BRANCH   8  24
ATOM     24  C6  <0> d           0.463   0.039   2.439  0.00  0.00     0.086 C 
ATOM     25  C7  <0> d          -0.740  -0.209   3.351  0.00  0.00     0.032 C 
ATOM     26  C8  <0> d           1.741  -0.423   3.143  0.00  0.00     0.032 C 
ENDBRANCH   8  24
TORSDOF 6
ENDMDL
MODEL ZINC76256471
REMARK  5 active torsions:
REMARK  status: ('A' for Active; 'I' for Inactive)
REMARK    1  A    between atoms: C2_2  and  O1_3 
REMARK    2  A    between atoms: O1_3  and  C3_4 
REMARK    3  A    between atoms: C4_5  and  C10_12 
REMARK    4  A    between atoms: C8_9  and  O2_10 
REMARK    5  A    between atoms: C12_14  and  C14_19 
ROOT
ATOM      1  C10 <0> d          -1.505  -1.780  -2.498  0.00  0.00     0.147 A 
ATOM      2  C11 <0> d          -2.834  -1.089  -2.720  0.00  0.00     0.040 A 
ATOM      3  C12 <0> d          -3.511  -1.375  -3.840  0.00  0.00     0.112 A 
ATOM      4  N1  <0> d          -3.002  -2.283  -4.772  0.00  0.00    -0.303 N 
ATOM      5  C13 <0> d          -1.832  -2.916  -4.617  0.00  0.00     0.321 A 
ATOM      6  O3  <0> d          -1.463  -3.692  -5.477  0.00  0.00    -0.247 OA
ATOM      7  N2  <0> d          -1.052  -2.720  -3.536  0.00  0.00    -0.331 N 
ATOM      8  H14 <0> d          -3.522  -2.463  -5.571  0.00  0.00     0.171 HD
ATOM      9  H15 <0> d          -0.208  -3.189  -3.445  0.00  0.00     0.165 HD
ENDROOT
BRANCH   1  10
ATOM     10  C4  <0> d          -1.586  -2.533  -1.196  0.00  0.00     0.004 A 
ATOM     11  C3  <0> d          -1.498  -1.849   0.006  0.00  0.00     0.110 A 
ATOM     12  C8  <0> d          -1.569  -2.548   1.208  0.00  0.00     0.102 A 
ATOM     13  C7  <0> d          -1.738  -3.923   1.197  0.00  0.00     0.039 A 
ATOM     14  C6  <0> d          -1.823  -4.600  -0.006  0.00  0.00     0.003 A 
ATOM     15  C5  <0> d          -1.748  -3.906  -1.200  0.00  0.00     0.012 A 
BRANCH  11  16
ATOM     16  O1  <0> d          -1.339  -0.499   0.012  0.00  0.00    -0.348 OA
BRANCH  16  17
ATOM     17  C2  <0> d           0.002  -0.004   0.002  0.00  0.00     0.171 C 
ATOM     18  C1  <0> d          -0.019   1.526   0.010  0.00  0.00     0.034 C 
ENDBRANCH  16  17
ENDBRANCH  11  16
BRANCH  12  19
ATOM     19  O2  <0> d          -1.478  -1.882   2.390  0.00  0.00    -0.353 OA
ATOM     20  C9  <0> d          -1.559  -2.664   3.583  0.00  0.00     0.210 C 
ENDBRANCH  12  19
ENDBRANCH   1  10
BRANCH   3  21
ATOM     21  C14 <0> d          -4.807  -0.725  -4.092  0.00  0.00     0.226 C 
ATOM     22  O4  <0> d          -5.260   0.071  -3.280  0.00  0.00    -0.643 OA
ATOM     23  O5  <0> d          -5.431  -0.980  -5.112  0.00  0.00    -0.643 OA
ENDBRANCH   3  21
TORSDOF 5
ENDMDL
MODEL ZINC76523453
REMARK  4 active torsions:
REMARK  status: ('A' for Active; 'I' for Inactive)
REMARK    1  A    between atoms: C3_3  and  N1_9 
REMARK    2  A    between atoms: N1_9  and  C7_10 
REMARK    3  A    between atoms: C7_10  and  C8_11 
REMARK    4  A    between atoms: N2_14  and  C12_16 
ROOT
ATOM      1  C8  <0> d           4.999   4.124  -0.025  0.00  0.00     0.031 C 
ATOM      2  C9  <0> d           5.680   3.831  -1.382  0.00  0.00     0.035 C 
ATOM      3  C10 <0> d           6.504   5.092  -1.699  0.00  0.00     0.236 C 
ATOM      4  N2  <0> d           6.320   6.027  -0.568  0.00  0.00    -0.066 N 
ATOM      5  C11 <0> d           5.013   5.672   0.047  0.00  0.00     0.241 C 
ATOM      6  H23 <0> d           7.062   5.908   0.106  0.00  0.00     0.280 HD
ENDROOT
BRANCH   1   7
ATOM      7  C7  <0> d           3.564   3.594  -0.014  0.00  0.00     0.126 C 
BRANCH   7   8
ATOM      8  N1  <0> d           3.584   2.129  -0.021  0.00  0.00    -0.387 N 
ATOM      9  H5  <0> d           4.430   1.656  -0.032  0.00  0.00     0.159 HD
BRANCH   8  10
ATOM     10  C3  <0> d           2.381   1.413  -0.013  0.00  0.00     0.067 A 
ATOM     11  C2  <0> d           1.170   2.089   0.002  0.00  0.00     0.035 A 
ATOM     12  C1  <0> d          -0.017   1.380   0.010  0.00  0.00     0.044 A 
ATOM     13  C6  <0> d           0.002  -0.004   0.002  0.00  0.00     0.119 A 
ATOM     14  C5  <0> d           1.210  -0.682  -0.013  0.00  0.00     0.086 A 
ATOM     15  F1  <0> d          -1.159  -0.694   0.010  0.00  0.00    -0.206 F 
ATOM     16  C4  <0> d           2.399   0.022  -0.021  0.00  0.00     0.145 A 
ATOM     17  F2  <0> d           3.577  -0.639  -0.036  0.00  0.00    -0.204 F 
ENDBRANCH   8  10
ENDBRANCH   7   8
ENDBRANCH   1   7
BRANCH   4  18
ATOM     18  C12 <0> d           6.292   7.412  -1.055  0.00  0.00     0.188 C 
ATOM     19  C16 <0> d           6.065   8.380   0.120  0.00  0.00     0.033 C 
ATOM     20  C15 <0> d           7.298   9.304   0.175  0.00  0.00     0.002 C 
ATOM     21  C14 <0> d           7.869   9.262  -1.264  0.00  0.00     0.002 C 
ATOM     22  C13 <0> d           7.656   7.783  -1.673  0.00  0.00     0.033 C 
ENDBRANCH   4  18
TORSDOF 4
ENDMDL
MODEL ZINC76568858
REMARK  7 active torsions:
REMARK  status: ('A' for Active; 'I' for Inactive)
REMARK    1  A    between atoms: N1_5  and  N4_21 
REMARK    2  A    between atoms: C4_6  and  S1_9 
REMARK    3  A    between atoms: S1_9  and  C5_10 
REMARK    4  A    between atoms: C5_10  and  C6_11 
REMARK    5  A    between atoms: C6_11  and  C7_12 
REMARK    6  A    between atoms: C7_12  and  C8_13 
REMARK    7  A    between atoms: C11_16  and  O2_19 
ROOT
ATOM      1  S1  <0> d           0.218  -4.431  -0.025  0.00  0.00    -0.089 SA
ENDROOT
BRANCH   1   2
ATOM      2  C4  <0> d           0.090  -2.673  -0.014  0.00  0.00     0.207 A 
ATOM      3  N1  <0> d          -1.139  -2.084  -0.004  0.00  0.00    -0.218 N 
ATOM      4  C3  <0> d          -1.207  -0.733   0.004  0.00  0.00     0.290 A 
ATOM      5  C2  <0> d           0.002  -0.004   0.002  0.00  0.00     0.122 A 
ATOM      6  O1  <0> d          -2.284  -0.160   0.012  0.00  0.00    -0.264 OA
ATOM      7  C1  <0> d          -0.018   1.503   0.010  0.00  0.00     0.078 C 
ATOM      8  N3  <0> d           1.144  -0.650  -0.012  0.00  0.00    -0.147 NA
ATOM      9  N2  <0> d           1.188  -1.935  -0.015  0.00  0.00    -0.122 NA
BRANCH   3  10
ATOM     10  N4  <0> d          -2.276  -2.840  -0.003  0.00  0.00    -0.238 NA
ATOM     11  H17 <0> d          -3.099  -2.256   0.005  0.00  0.00     0.143 HD
ATOM     12  H18 <0> d          -2.290  -3.474  -0.788  0.00  0.00     0.143 HD
ENDBRANCH   3  10
ENDBRANCH   1   2
BRANCH   1  13
ATOM     13  C5  <0> d           2.006  -4.741  -0.035  0.00  0.00     0.083 C 
BRANCH  13  14
ATOM     14  C6  <0> d           2.261  -6.249  -0.045  0.00  0.00     0.015 C 
BRANCH  14  15
ATOM     15  C7  <0> d           3.769  -6.511  -0.054  0.00  0.00     0.039 C 
BRANCH  15  16
ATOM     16  C8  <0> d           4.021  -7.996  -0.064  0.00  0.00    -0.058 A 
ATOM     17  C13 <0> d           4.130  -8.670  -1.266  0.00  0.00     0.010 A 
ATOM     18  C12 <0> d           4.367 -10.031  -1.278  0.00  0.00     0.037 A 
ATOM     19  C11 <0> d           4.484 -10.724  -0.082  0.00  0.00     0.068 A 
ATOM     20  C10 <0> d           4.368 -10.047   1.123  0.00  0.00     0.037 A 
ATOM     21  C9  <0> d           4.137  -8.685   1.130  0.00  0.00     0.010 A 
BRANCH  19  22
ATOM     22  O2  <0> d           4.712 -12.063  -0.091  0.00  0.00    -0.356 OA
ATOM     23  C14 <0> d           4.821 -12.695  -1.368  0.00  0.00     0.210 C 
ENDBRANCH  19  22
ENDBRANCH  15  16
ENDBRANCH  14  15
ENDBRANCH  13  14
ENDBRANCH   1  13
TORSDOF 7
ENDMDL
MODEL ZINC76601217
REMARK  2 active torsions:
REMARK  status: ('A' for Active; 'I' for Inactive)
REMARK    1  A    between atoms: C3_4  and  C7_9 
REMARK    2  A    between atoms: C5_6  and  C6_7 
ROOT
ATOM      1  C1  <0> d          -0.018   1.461   0.010  0.00  0.00     0.156 C 
ATOM      2  N1  <0> d           0.002  -0.004   0.002  0.00  0.00    -0.358 N 
ATOM      3  C2  <0> d           0.008  -0.779  -1.100  0.00  0.00     0.105 A 
ATOM      4  C3  <0> d           0.029  -2.103  -0.709  0.00  0.00     0.017 A 
ATOM      5  C4  <0> d           0.035  -2.125   0.698  0.00  0.00     0.048 A 
ATOM      6  C5  <0> d           0.024  -0.810   1.121  0.00  0.00     0.072 A 
ENDROOT
BRANCH   4   7
ATOM      7  C7  <0> d           0.041  -3.281  -1.605  0.00  0.00     0.106 A 
ATOM      8  O2  <0> d           0.033  -3.265  -2.955  0.00  0.00    -0.302 OA
ATOM      9  C9  <0> d           0.052  -4.538  -3.378  0.00  0.00     0.258 A 
ATOM     10  N2  <0> d           0.062  -5.329  -2.343  0.00  0.00    -0.246 NA
ATOM     11  C8  <0> d           0.055  -4.584  -1.226  0.00  0.00     0.156 A 
ENDBRANCH   4   7
BRANCH   6  12
ATOM     12  C6  <0> d           0.030  -0.368   2.464  0.00  0.00     0.288 C 
ATOM     13  O1  <0> d           0.049  -1.177   3.369  0.00  0.00    -0.300 OA
ENDBRANCH   6  12
TORSDOF 2
ENDMDL
MODEL ZINC07803790
REMARK  3 active torsions:
REMARK  status: ('A' for Active; 'I' for Inactive)
REMARK    1  A    between atoms: C6_6  and  C9_9 
REMARK       I    between atoms: C9_9  and  N1_11 
REMARK    2  A    between atoms: N2_14  and  S1_17 
REMARK    3  A    between atoms: S1_17  and  C14_20 
ROOT
ATOM      1  C9  <0> d          -0.062   5.450   1.223  0.00  0.00     0.254 C 
ATOM      2  O1  <0> d           0.986   6.059   1.138  0.00  0.00    -0.267 OA
ATOM      3  N1  <0> d          -0.052   4.114   1.403  0.00  0.00    -0.345 N 
ATOM      4  C10 <0> d           1.215   3.370   1.414  0.00  0.00     0.146 C 
ATOM      5  C11 <0> d           1.138   2.256   0.362  0.00  0.00     0.155 C 
ATOM      6  N2  <0> d          -0.118   1.518   0.551  0.00  0.00    -0.304 N 
ATOM      7  C12 <0> d          -1.386   2.261   0.535  0.00  0.00     0.155 C 
ATOM      8  C13 <0> d          -1.309   3.375   1.592  0.00  0.00     0.146 C 
ENDROOT
BRANCH   1   9
ATOM      9  C6  <0> d          -1.348   6.173   1.127  0.00  0.00     0.038 A 
ATOM     10  C5  <0> d          -2.291   6.064   2.150  0.00  0.00     0.017 A 
ATOM     11  C4  <0> d          -3.489   6.742   2.055  0.00  0.00     0.002 A 
ATOM     12  C3  <0> d          -3.756   7.529   0.949  0.00  0.00     0.007 A 
ATOM     13  C2  <0> d          -2.825   7.641  -0.069  0.00  0.00    -0.055 A 
ATOM     14  C1  <0> d          -3.125   8.500  -1.270  0.00  0.00     0.049 C 
ATOM     15  C7  <0> d          -1.622   6.973   0.017  0.00  0.00    -0.040 A 
ATOM     16  C8  <0> d          -0.607   7.101  -1.090  0.00  0.00     0.050 C 
ENDBRANCH   1   9
BRANCH   6  17
ATOM     17  S1  <0> d          -0.106  -0.124   0.772  0.00  0.00     0.260 S 
ATOM     18  O2  <0> d          -1.384  -0.597   0.370  0.00  0.00    -0.200 OA
ATOM     19  O3  <0> d           1.100  -0.602   0.194  0.00  0.00    -0.200 OA
BRANCH  17  20
ATOM     20  C14 <0> d           0.017  -0.415   2.506  0.00  0.00     0.079 A 
ATOM     21  C19 <0> d          -1.130  -0.527   3.270  0.00  0.00     0.027 A 
ATOM     22  C18 <0> d          -1.034  -0.756   4.630  0.00  0.00     0.025 A 
ATOM     23  C17 <0> d           0.209  -0.873   5.226  0.00  0.00     0.034 A 
ATOM     24  C16 <0> d           1.355  -0.761   4.460  0.00  0.00     0.025 A 
ATOM     25 Cl1  <0> d           0.329  -1.160   6.934  0.00  0.00    -0.084 Cl
ATOM     26  C15 <0> d           1.259  -0.538   3.099  0.00  0.00     0.027 A 
ENDBRANCH  17  20
ENDBRANCH   6  17
TORSDOF 3
ENDMDL
MODEL ZINC76666038
REMARK  6 active torsions:
REMARK  status: ('A' for Active; 'I' for Inactive)
REMARK    1  A    between atoms: O1_2  and  C2_3 
REMARK    2  A    between atoms: C5_6  and  O2_18 
REMARK    3  A    between atoms: C6_7  and  C8_9 
REMARK    4  A    between atoms: C8_9  and  C9_10 
REMARK    5  A    between atoms: C8_9  and  C10_12 
REMARK    6  A    between atoms: C9_10  and  N1_11 
ROOT
ATOM      1  C8  <0> d           1.323  -4.108  -2.285  0.00  0.00     0.081 C 
ENDROOT
BRANCH   1   2
ATOM      2  C6  <0> d           1.252  -2.620  -2.512  0.00  0.00    -0.012 A 
ATOM      3  C5  <0> d           1.696  -2.080  -3.710  0.00  0.00     0.075 A 
ATOM      4  C4  <0> d           1.631  -0.710  -3.919  0.00  0.00     0.040 A 
ATOM      5  C3  <0> d           1.124   0.116  -2.934  0.00  0.00     0.039 A 
ATOM      6  C2  <0> d           0.679  -0.425  -1.737  0.00  0.00     0.068 A 
ATOM      7  C7  <0> d           0.750  -1.794  -1.526  0.00  0.00     0.047 A 
BRANCH   3   8
ATOM      8  O2  <0> d           2.195  -2.892  -4.679  0.00  0.00    -0.355 OA
ATOM      9  C15 <0> d           2.633  -2.268  -5.888  0.00  0.00     0.210 C 
ENDBRANCH   3   8
BRANCH   6  10
ATOM     10  O1  <0> d           0.180   0.387  -0.767  0.00  0.00    -0.356 OA
ATOM     11  C1  <0> d           0.137   1.787  -1.053  0.00  0.00     0.210 C 
ENDBRANCH   6  10
ENDBRANCH   1   2
BRANCH   1  12
ATOM     12  C9  <0> d           2.086  -4.391  -0.990  0.00  0.00     0.243 C 
BRANCH  12  13
ATOM     13  N1  <0> d           2.260  -5.841  -0.829  0.00  0.00    -0.078 N 
ATOM     14  H10 <0> d           1.355  -6.285  -0.791  0.00  0.00     0.274 HD
ATOM     15  H11 <0> d           2.780  -6.206  -1.613  0.00  0.00     0.274 HD
ATOM     16  H19 <0> d           2.763  -6.027   0.025  0.00  0.00     0.274 HD
ENDBRANCH  12  13
ENDBRANCH   1  12
BRANCH   1  17
ATOM     17  C10 <0> d          -0.072  -4.667  -2.179  0.00  0.00    -0.030 A 
ATOM     18  C14 <0> d          -0.876  -4.341  -1.103  0.00  0.00     0.124 A 
ATOM     19  N2  <0> d          -2.101  -4.822  -1.006  0.00  0.00    -0.273 NA
ATOM     20  C13 <0> d          -2.601  -5.635  -1.915  0.00  0.00     0.116 A 
ATOM     21  C12 <0> d          -1.853  -6.010  -3.016  0.00  0.00     0.020 A 
ATOM     22  C11 <0> d          -0.564  -5.520  -3.155  0.00  0.00     0.011 A 
ENDBRANCH   1  17
TORSDOF 6
ENDMDL
MODEL ZINC76723012
REMARK  2 active torsions:
REMARK  status: ('A' for Active; 'I' for Inactive)
REMARK       I    between atoms: N1_8  and  C10_12 
REMARK    1  A    between atoms: C10_12  and  O2_14 
REMARK    2  A    between atoms: O2_14  and  C11_15 
ROOT
ATOM      1  C1  <0> d          -0.010   1.494   0.312  0.00  0.00     0.046 C 
ATOM      2  C2  <0> d           0.002  -0.004   0.002  0.00  0.00     0.119 C 
ATOM      3  C3  <0> d           0.707  -0.272  -1.349  0.00  0.00     0.044 C 
ATOM      4  C4  <0> d           1.171  -1.732  -1.208  0.00  0.00     0.020 C 
ATOM      5  C5  <0> d           0.127  -2.713  -1.664  0.00  0.00     0.008 C 
ATOM      6  C6  <0> d           0.706  -4.069  -1.988  0.00  0.00     0.020 C 
ATOM      7  C7  <0> d           0.389  -5.072  -0.894  0.00  0.00     0.128 C 
ATOM      8  N1  <0> d           0.980  -4.435   0.302  0.00  0.00    -0.326 N 
ATOM      9  C8  <0> d           0.555  -3.148   0.767  0.00  0.00     0.161 C 
ATOM     10  C9  <0> d           1.381  -1.933   0.332  0.00  0.00     0.208 C 
ATOM     11  N2  <0> d           0.827  -0.730   0.990  0.00  0.00    -0.061 N 
ATOM     12  C10 <0> d           1.948  -5.086   0.976  0.00  0.00     0.363 C 
ATOM     13  O1  <0> d           2.447  -4.580   1.962  0.00  0.00    -0.238 OA
ATOM     14  C15 <0> d          -1.424  -0.558  -0.015  0.00  0.00     0.046 C 
ATOM     15  H16 <0> d           1.580  -0.138   1.307  0.00  0.00     0.278 HD
ATOM     16  H29 <0> d           0.256  -1.004   1.775  0.00  0.00     0.278 HD
ENDROOT
BRANCH  12  17
ATOM     17  O2  <0> d           2.363  -6.296   0.557  0.00  0.00    -0.294 OA
BRANCH  17  18
ATOM     18  C11 <0> d           3.393  -6.929   1.320  0.00  0.00     0.061 C 
ATOM     19  C12 <0> d           2.911  -7.134   2.757  0.00  0.00     0.046 C 
ATOM     20  C13 <0> d           3.730  -8.285   0.697  0.00  0.00     0.046 C 
ATOM     21  C14 <0> d           4.642  -6.045   1.322  0.00  0.00     0.046 C 
ENDBRANCH  17  18
ENDBRANCH  12  17
TORSDOF 2
ENDMDL
MODEL ZINC04504675
REMARK  4 active torsions:
REMARK  status: ('A' for Active; 'I' for Inactive)
REMARK    1  A    between atoms: C2_2  and  C4_4 
REMARK    2  A    between atoms: C4_4  and  N1_5 
REMARK    3  A    between atoms: N1_5  and  C5_6 
REMARK       I    between atoms: N1_5  and  C9_13 
REMARK    4  A    between atoms: C9_13  and  C10_15 
ROOT
ATOM      1  N1  <0> d           2.398   5.287   0.130  0.00  0.00    -0.342 N 
ATOM      2  C9  <0> d           2.371   4.176  -0.633  0.00  0.00     0.256 C 
ATOM      3  O3  <0> d           1.703   3.220  -0.291  0.00  0.00    -0.267 OA
ENDROOT
BRANCH   1   4
ATOM      4  C4  <0> d           1.146   5.883   0.600  0.00  0.00     0.130 C 
BRANCH   4   5
ATOM      5  C2  <0> d           0.873   5.430   2.036  0.00  0.00    -0.005 C 
ATOM      6  C1  <0> d          -0.374   6.140   2.567  0.00  0.00     0.011 C 
ATOM      7  C3  <0> d           0.647   3.917   2.059  0.00  0.00     0.011 C 
ENDBRANCH   4   5
ENDBRANCH   1   4
BRANCH   1   8
ATOM      8  C5  <0> d           3.680   5.898   0.488  0.00  0.00     0.102 C 
ATOM      9  C8  <0> d           4.391   5.033   1.568  0.00  0.00     0.165 C 
ATOM     10  S1  <0> d           6.127   5.623   1.383  0.00  0.00     0.146 S 
ATOM     11  C7  <0> d           6.039   6.300  -0.325  0.00  0.00     0.142 C 
ATOM     12  O1  <0> d           6.352   6.691   2.293  0.00  0.00    -0.228 OA
ATOM     13  O2  <0> d           7.000   4.501   1.392  0.00  0.00    -0.228 OA
ATOM     14  C6  <0> d           4.590   5.960  -0.750  0.00  0.00     0.041 C 
ENDBRANCH   1   8
BRANCH   2  15
ATOM     15  C10 <0> d           3.153   4.120  -1.886  0.00  0.00     0.055 A 
ATOM     16  C15 <0> d           2.652   4.704  -3.052  0.00  0.00     0.049 A 
ATOM     17  C14 <0> d           3.388   4.647  -4.220  0.00  0.00     0.026 A 
ATOM     18 Cl1  <0> d           1.108   5.497  -3.034  0.00  0.00    -0.083 Cl
ATOM     19  C13 <0> d           4.615   4.011  -4.237  0.00  0.00     0.025 A 
ATOM     20  C12 <0> d           5.120   3.435  -3.083  0.00  0.00     0.035 A 
ATOM     21  C11 <0> d           4.395   3.484  -1.909  0.00  0.00     0.042 A 
ATOM     22 Cl2  <0> d           6.666   2.645  -3.114  0.00  0.00    -0.084 Cl
ENDBRANCH   2  15
TORSDOF 4
ENDMDL
MODEL ZINC76826816
REMARK  7 active torsions:
REMARK  status: ('A' for Active; 'I' for Inactive)
REMARK    1  A    between atoms: C2_2  and  C4_4 
REMARK    2  A    between atoms: C4_4  and  N1_5 
REMARK    3  A    between atoms: C5_6  and  C9_12 
REMARK    4  A    between atoms: C7_8  and  C8_10 
REMARK    5  A    between atoms: C8_10  and  O1_11 
REMARK    6  A    between atoms: C11_14  and  O3_20 
REMARK    7  A    between atoms: C14_17  and  O2_18 
ROOT
ATOM      1  N1  <0> d          -2.084  -0.050  -1.077  0.00  0.00    -0.268 N 
ATOM      2  C5  <0> d          -2.692   1.161  -1.224  0.00  0.00     0.068 A 
ATOM      3  C6  <0> d          -3.313   1.160  -2.441  0.00  0.00     0.063 A 
ATOM      4  C7  <0> d          -3.075  -0.077  -3.041  0.00  0.00     0.080 A 
ATOM      5  N2  <0> d          -2.339  -0.798  -2.234  0.00  0.00    -0.174 NA
ENDROOT
BRANCH   2   6
ATOM      6  C9  <0> d          -2.681   2.271  -0.246  0.00  0.00     0.028 A 
ATOM      7  C14 <0> d          -3.236   3.510  -0.584  0.00  0.00     0.081 A 
ATOM      8  C13 <0> d          -3.228   4.544   0.338  0.00  0.00     0.040 A 
ATOM      9  C12 <0> d          -2.663   4.357   1.585  0.00  0.00     0.039 A 
ATOM     10  C11 <0> d          -2.106   3.131   1.924  0.00  0.00     0.069 A 
ATOM     11  C10 <0> d          -2.113   2.089   1.014  0.00  0.00     0.053 A 
BRANCH   7  12
ATOM     12  O2  <0> d          -3.788   3.697  -1.812  0.00  0.00    -0.355 OA
ATOM     13  C15 <0> d          -4.336   4.988  -2.088  0.00  0.00     0.210 C 
ENDBRANCH   7  12
BRANCH  10  14
ATOM     14  O3  <0> d          -1.552   2.955   3.154  0.00  0.00    -0.356 OA
ATOM     15  C16 <0> d          -1.578   4.073   4.043  0.00  0.00     0.210 C 
ENDBRANCH  10  14
ENDBRANCH   2   6
BRANCH   1  16
ATOM     16  C4  <0> d          -1.300  -0.489   0.080  0.00  0.00     0.155 C 
BRANCH  16  17
ATOM     17  C2  <0> d          -0.678  -1.856  -0.214  0.00  0.00    -0.003 C 
ATOM     18  C1  <0> d           0.346  -1.718  -1.343  0.00  0.00     0.011 C 
ATOM     19  C3  <0> d           0.016  -2.381   1.044  0.00  0.00     0.011 C 
ENDBRANCH  16  17
ENDBRANCH   1  16
BRANCH   4  20
ATOM     20  C8  <0> d          -3.578  -0.509  -4.395  0.00  0.00     0.225 C 
BRANCH  20  21
ATOM     21  O1  <0> d          -4.342   0.548  -4.979  0.00  0.00    -0.395 OA
ATOM     22  H13 <0> d          -4.697   0.340  -5.854  0.00  0.00     0.209 HD
ENDBRANCH  20  21
ENDBRANCH   4  20
TORSDOF 7
ENDMDL
MODEL ZINC76843320
REMARK  3 active torsions:
REMARK  status: ('A' for Active; 'I' for Inactive)
REMARK    1  A    between atoms: C2_2  and  C3_3 
REMARK    2  A    between atoms: C3_3  and  N1_4 
REMARK    3  A    between atoms: C4_5  and  C8_11 
ROOT
ATOM      1  N1  <0> d          -1.184  -2.014  -0.113  0.00  0.00    -0.268 N 
ATOM      2  C4  <0> d          -1.349  -2.674  -1.295  0.00  0.00     0.066 A 
ATOM      3  C5  <0> d          -1.589  -3.984  -0.987  0.00  0.00     0.077 A 
ATOM      4  C6  <0> d          -1.554  -4.050   0.424  0.00  0.00     0.159 A 
ATOM      5  N2  <0> d          -1.303  -2.834   0.868  0.00  0.00    -0.161 NA
ATOM      6  C7  <0> d          -1.752  -5.222   1.223  0.00  0.00     0.121 C 
ATOM      7  N3  <0> d          -1.908  -6.151   1.857  0.00  0.00    -0.190 NA
ENDROOT
BRANCH   2   8
ATOM      8  C8  <0> d          -1.282  -2.084  -2.651  0.00  0.00    -0.008 A 
ATOM      9  C13 <0> d          -1.914  -2.717  -3.722  0.00  0.00     0.014 A 
ATOM     10  C12 <0> d          -1.853  -2.159  -4.982  0.00  0.00     0.007 A 
ATOM     11  C11 <0> d          -1.157  -0.982  -5.188  0.00  0.00    -0.062 A 
ATOM     12  C10 <0> d          -0.523  -0.353  -4.132  0.00  0.00     0.007 A 
ATOM     13  C14 <0> d          -1.089  -0.382  -6.569  0.00  0.00     0.048 C 
ATOM     14  C9  <0> d          -0.582  -0.897  -2.865  0.00  0.00     0.014 A 
ENDBRANCH   2   8
BRANCH   1  15
ATOM     15  C3  <0> d          -0.905  -0.582   0.018  0.00  0.00     0.151 C 
BRANCH  15  16
ATOM     16  C2  <0> d           0.603  -0.366   0.154  0.00  0.00     0.017 C 
ATOM     17  C1  <0> d           0.896   1.132   0.262  0.00  0.00     0.007 C 
ENDBRANCH  15  16
ENDBRANCH   1  15
TORSDOF 3
ENDMDL
MODEL ZINC76875765
REMARK  4 active torsions:
REMARK  status: ('A' for Active; 'I' for Inactive)
REMARK    1  A    between atoms: C9_10  and  C10_11 
REMARK    2  A    between atoms: C10_11  and  O2_13 
REMARK    3  A    between atoms: O2_13  and  C11_14 
REMARK    4  A    between atoms: C11_14  and  C12_15 
ROOT
ATOM      1  C1  <0> d          -0.017   1.370   0.010  0.00  0.00     0.001 A 
ATOM      2  C2  <0> d           1.177   2.068   0.002  0.00  0.00     0.001 A 
ATOM      3  C3  <0> d           2.363   1.370  -0.003  0.00  0.00     0.009 A 
ATOM      4  C4  <0> d           2.385  -0.026  -0.007  0.00  0.00    -0.029 A 
ATOM      5  C5  <0> d           1.205  -0.721  -0.017  0.00  0.00    -0.050 A 
ATOM      6  C6  <0> d           0.002  -0.004   0.002  0.00  0.00     0.007 A 
ATOM      7  C7  <0> d           1.035  -2.212  -0.073  0.00  0.00     0.049 C 
ATOM      8  C8  <0> d           2.257  -2.985   0.402  0.00  0.00     0.080 C 
ATOM      9  S1  <0> d           3.696  -2.366  -0.526  0.00  0.00    -0.149 SA
ATOM     10  C9  <0> d           3.765  -0.636   0.013  0.00  0.00     0.180 C 
ENDROOT
BRANCH  10  11
ATOM     11  C10 <0> d           4.667   0.140  -0.911  0.00  0.00     0.277 C 
ATOM     12  O1  <0> d           4.207   0.687  -1.886  0.00  0.00    -0.264 OA
BRANCH  11  13
ATOM     13  O2  <0> d           5.982   0.224  -0.653  0.00  0.00    -0.314 OA
BRANCH  13  14
ATOM     14  C11 <0> d           6.777   0.975  -1.571  0.00  0.00     0.245 C 
BRANCH  14  15
ATOM     15  C12 <0> d           8.215   0.958  -1.122  0.00  0.00     0.098 A 
ATOM     16  S2  <0> d           9.004   2.037  -0.099  0.00  0.00    -0.083 SA
ATOM     17  C14 <0> d          10.615   1.268  -0.127  0.00  0.00     0.071 A 
ATOM     18  C13 <0> d          10.379   0.221  -0.958  0.00  0.00     0.124 A 
ATOM     19  N1  <0> d           9.156   0.103  -1.437  0.00  0.00    -0.255 NA
ENDBRANCH  14  15
ENDBRANCH  13  14
ENDBRANCH  11  13
ENDBRANCH  10  11
TORSDOF 4
ENDMDL
MODEL ZINC77059679
REMARK  6 active torsions:
REMARK  status: ('A' for Active; 'I' for Inactive)
REMARK    1  A    between atoms: C2_2  and  O1_3 
REMARK    2  A    between atoms: O1_3  and  C3_4 
REMARK    3  A    between atoms: C6_7  and  C10_12 
REMARK    4  A    between atoms: C7_8  and  O2_10 
REMARK    5  A    between atoms: C12_14  and  C14_20 
REMARK    6  A    between atoms: C14_20  and  C15_21 
ROOT
ATOM      1  C10 <0> d          -1.987  -6.076  -0.011  0.00  0.00     0.090 A 
ATOM      2  C11 <0> d          -0.849  -6.917  -0.015  0.00  0.00     0.047 A 
ATOM      3  C12 <0> d          -1.044  -8.266  -0.020  0.00  0.00     0.024 A 
ATOM      4  C13 <0> d          -2.374  -8.742  -0.022  0.00  0.00     0.268 A 
ATOM      5  O3  <0> d          -2.597  -9.942  -0.027  0.00  0.00    -0.266 OA
ATOM      6  N1  <0> d          -3.393  -7.863  -0.018  0.00  0.00    -0.242 N 
ATOM      7  H1  <0> d          -4.304  -8.197  -0.018  0.00  0.00     0.192 HD
ATOM      8  N2  <0> d          -3.192  -6.595  -0.007  0.00  0.00    -0.171 NA
ENDROOT
BRANCH   1   9
ATOM      9  C6  <0> d          -1.817  -4.603  -0.004  0.00  0.00     0.028 A 
ATOM     10  C5  <0> d          -0.539  -4.047  -0.008  0.00  0.00     0.019 A 
ATOM     11  C4  <0> d          -0.384  -2.677  -0.003  0.00  0.00     0.038 A 
ATOM     12  C3  <0> d          -1.498  -1.848   0.006  0.00  0.00     0.071 A 
ATOM     13  C8  <0> d          -2.773  -2.393   0.016  0.00  0.00     0.074 A 
ATOM     14  C7  <0> d          -2.939  -3.768   0.005  0.00  0.00     0.083 A 
BRANCH  12  15
ATOM     15  O1  <0> d          -1.339  -0.499   0.012  0.00  0.00    -0.351 OA
BRANCH  15  16
ATOM     16  C2  <0> d           0.002  -0.004   0.002  0.00  0.00     0.171 C 
ATOM     17  C1  <0> d          -0.019   1.526   0.010  0.00  0.00     0.034 C 
ENDBRANCH  15  16
ENDBRANCH  12  15
BRANCH  14  18
ATOM     18  O2  <0> d          -4.187  -4.303   0.009  0.00  0.00    -0.355 OA
ATOM     19  C9  <0> d          -5.285  -3.389   0.018  0.00  0.00     0.210 C 
ENDBRANCH  14  18
ENDBRANCH   1   9
BRANCH   3  20
ATOM     20  C14 <0> d           0.123  -9.220  -0.025  0.00  0.00     0.157 C 
BRANCH  20  21
ATOM     21  C15 <0> d           0.435  -9.640   1.388  0.00  0.00     0.177 C 
ATOM     22  O4  <0> d          -0.229  -9.205   2.313  0.00  0.00    -0.648 OA
ATOM     23  O5  <0> d           1.351 -10.414   1.606  0.00  0.00    -0.648 OA
ENDBRANCH  20  21
ENDBRANCH   3  20
TORSDOF 6
ENDMDL
MODEL ZINC77062450
REMARK  2 active torsions:
REMARK  status: ('A' for Active; 'I' for Inactive)
REMARK    1  A    between atoms: C4_6  and  C6_9 
REMARK    2  A    between atoms: C10_13  and  O2_15 
ROOT
ATOM      1  C1  <0> d          -0.018   1.461   0.010  0.00  0.00     0.183 C 
ATOM      2  N1  <0> d           0.002  -0.004   0.002  0.00  0.00    -0.238 N 
ATOM      3  C2  <0> d          -1.168  -0.670   0.004  0.00  0.00     0.284 A 
ATOM      4  O1  <0> d          -2.224  -0.061   0.012  0.00  0.00    -0.265 OA
ATOM      5  C3  <0> d          -1.157  -2.092  -0.004  0.00  0.00     0.126 A 
ATOM      6  C4  <0> d           0.099  -2.725  -0.013  0.00  0.00     0.020 A 
ATOM      7  C5  <0> d           1.249  -1.905  -0.014  0.00  0.00     0.153 A 
ATOM      8  N2  <0> d           1.133  -0.607  -0.012  0.00  0.00    -0.181 NA
ATOM      9  C13 <0> d          -2.373  -2.847  -0.001  0.00  0.00     0.106 C 
ATOM     10  N3  <0> d          -3.338  -3.446   0.001  0.00  0.00    -0.191 NA
ENDROOT
BRANCH   6  11
ATOM     11  C6  <0> d           0.211  -4.200  -0.021  0.00  0.00    -0.020 A 
ATOM     12  C11 <0> d           0.767  -4.854  -1.121  0.00  0.00     0.049 A 
ATOM     13  C10 <0> d           0.873  -6.234  -1.119  0.00  0.00     0.069 A 
ATOM     14  C9  <0> d           0.418  -6.965  -0.030  0.00  0.00     0.037 A 
ATOM     15  C8  <0> d          -0.139  -6.319   1.058  0.00  0.00     0.004 A 
ATOM     16  C7  <0> d          -0.244  -4.943   1.069  0.00  0.00     0.012 A 
BRANCH  13  17
ATOM     17  O2  <0> d           1.420  -6.875  -2.187  0.00  0.00    -0.356 OA
ATOM     18  C12 <0> d           1.493  -8.300  -2.120  0.00  0.00     0.210 C 
ENDBRANCH  13  17
ENDBRANCH   6  11
TORSDOF 2
ENDMDL
MODEL ZINC77084024
REMARK  4 active torsions:
REMARK  status: ('A' for Active; 'I' for Inactive)
REMARK    1  A    between atoms: O1_2  and  C2_3 
REMARK    2  A    between atoms: C7_8  and  C8_9 
REMARK    3  A    between atoms: C10_11  and  C15_17 
REMARK    4  A    between atoms: C11_12  and  C12_14 
ROOT
ATOM      1  C8  <0> d           0.067  -2.829   0.031  0.00  0.00     0.089 A 
ATOM      2  C9  <0> d           0.663  -3.851  -0.640  0.00  0.00     0.049 A 
ATOM      3  C10 <0> d          -0.284  -4.339  -1.562  0.00  0.00    -0.012 A 
ATOM      4  C11 <0> d          -1.400  -3.600  -1.411  0.00  0.00     0.065 A 
ATOM      5  O2  <0> d          -1.186  -2.692  -0.444  0.00  0.00    -0.313 OA
ENDROOT
BRANCH   1   6
ATOM      6  C7  <0> d           0.683  -2.016   1.099  0.00  0.00     0.033 A 
ATOM      7  C2  <0> d           0.626  -0.618   1.041  0.00  0.00     0.081 A 
ATOM      8  C3  <0> d           1.202   0.136   2.050  0.00  0.00     0.039 A 
ATOM      9  C4  <0> d           1.836  -0.489   3.107  0.00  0.00     0.026 A 
ATOM     10  C5  <0> d           1.900  -1.871   3.166  0.00  0.00     0.035 A 
ATOM     11  C6  <0> d           1.330  -2.637   2.168  0.00  0.00     0.041 A 
ATOM     12 Cl2  <0> d           2.700  -2.644   4.499  0.00  0.00    -0.084 Cl
BRANCH   7  13
ATOM     13  O1  <0> d           0.002  -0.004   0.002  0.00  0.00    -0.355 OA
ATOM     14  C1  <0> d          -0.017   1.425   0.010  0.00  0.00     0.210 C 
ENDBRANCH   7  13
ENDBRANCH   1   6
BRANCH   4  15
ATOM     15  C12 <0> d          -2.677  -3.767  -2.192  0.00  0.00     0.044 A 
ATOM     16  C14 <0> d          -3.949  -4.093  -1.406  0.00  0.00     0.012 A 
ATOM     17  C13 <0> d          -3.760  -2.701  -2.013  0.00  0.00     0.012 A 
ENDBRANCH   4  15
BRANCH   3  18
ATOM     18  C15 <0> d          -0.086  -5.473  -2.534  0.00  0.00     0.155 C 
ATOM     19 Cl1  <0> d          -0.576  -7.024  -1.757  0.00  0.00    -0.125 Cl
ENDBRANCH   3  18
TORSDOF 4
ENDMDL
MODEL ZINC77092737
REMARK  2 active torsions:
REMARK  status: ('A' for Active; 'I' for Inactive)
REMARK    1  A    between atoms: C5_6  and  C6_7 
REMARK    2  A    between atoms: C9_12  and  C10_15 
ROOT
ATOM      1  C6  <0> d          -1.254  -0.780   0.010  0.00  0.00     0.060 A 
ATOM      2  C7  <0> d          -2.095  -0.712  -1.044  0.00  0.00     0.084 A 
ATOM      3  S1  <0> d          -3.414  -1.804  -0.536  0.00  0.00    -0.059 SA
ATOM      4  C8  <0> d          -2.748  -2.270   1.043  0.00  0.00     0.201 A 
ATOM      5  N2  <0> d          -1.564  -1.578   1.094  0.00  0.00    -0.267 N 
ATOM      6  C9  <0> d          -1.025  -1.939   2.326  0.00  0.00     0.214 A 
ATOM      7  N3  <0> d          -1.864  -2.775   2.898  0.00  0.00    -0.124 NA
ATOM      8  N4  <0> d          -2.885  -2.961   2.137  0.00  0.00    -0.121 NA
ENDROOT
BRANCH   1   9
ATOM      9  C5  <0> d           0.002  -0.004   0.002  0.00  0.00    -0.006 A 
ATOM     10  C1  <0> d          -0.017   1.397   0.010  0.00  0.00     0.033 A 
ATOM     11  C2  <0> d           1.179   2.081   0.002  0.00  0.00     0.117 A 
ATOM     12  N1  <0> d           2.330   1.434  -0.013  0.00  0.00    -0.273 NA
ATOM     13  C3  <0> d           2.393   0.116  -0.020  0.00  0.00     0.117 A 
ATOM     14  C4  <0> d           1.246  -0.648  -0.013  0.00  0.00     0.033 A 
ENDBRANCH   1   9
BRANCH   6  15
ATOM     15  C10 <0> d           0.250  -1.470   2.886  0.00  0.00     0.242 A 
ATOM     16  O1  <0> d           0.776  -1.818   4.082  0.00  0.00    -0.260 OA
ATOM     17  C11 <0> d           1.948  -1.161   4.186  0.00  0.00     0.242 A 
ATOM     18  N6  <0> d           2.098  -0.448   3.094  0.00  0.00    -0.113 NA
ATOM     19  S2  <0> d           3.070  -1.239   5.542  0.00  0.00    -0.001 SA
ATOM     20  N5  <0> d           1.087  -0.631   2.319  0.00  0.00    -0.117 NA
ENDBRANCH   6  15
TORSDOF 2
ENDMDL
MODEL ZINC01441550
REMARK  4 active torsions:
REMARK  status: ('A' for Active; 'I' for Inactive)
REMARK       I    between atoms: N1_7  and  C7_8 
REMARK    1  A    between atoms: C7_8  and  C8_10 
REMARK    2  A    between atoms: C13_15  and  N2_16 
REMARK       I    between atoms: N2_16  and  C14_17 
REMARK    3  A    between atoms: C14_17  and  C15_19 
REMARK    4  A    between atoms: C17_21  and  S1_26 
ROOT
ATOM      1  C8  <0> d           2.090  -0.501   3.006  0.00  0.00     0.059 A 
ATOM      2  C9  <0> d           2.149  -1.896   3.038  0.00  0.00     0.019 A 
ATOM      3  C10 <0> d           2.870  -2.531   4.026  0.00  0.00     0.001 A 
ATOM      4  C11 <0> d           3.537  -1.792   4.990  0.00  0.00     0.002 A 
ATOM      5  C12 <0> d           3.487  -0.413   4.972  0.00  0.00     0.030 A 
ATOM      6  C13 <0> d           2.771   0.244   3.980  0.00  0.00     0.050 A 
ENDROOT
BRANCH   6   7
ATOM      7  N2  <0> d           2.725   1.635   3.956  0.00  0.00    -0.322 N 
ATOM      8  C14 <0> d           3.697   2.352   4.554  0.00  0.00     0.257 C 
ATOM      9  O2  <0> d           4.668   1.789   5.022  0.00  0.00    -0.267 OA
ATOM     10  H17 <0> d           1.993   2.089   3.509  0.00  0.00     0.169 HD
BRANCH   8  11
ATOM     11  C15 <0> d           3.583   3.823   4.642  0.00  0.00     0.055 A 
ATOM     12  C20 <0> d           4.589   4.569   5.261  0.00  0.00     0.049 A 
ATOM     13  C19 <0> d           4.482   5.944   5.336  0.00  0.00     0.026 A 
ATOM     14 Cl1  <0> d           5.977   3.768   5.929  0.00  0.00    -0.083 Cl
ATOM     15  C18 <0> d           3.377   6.585   4.811  0.00  0.00     0.020 A 
ATOM     16  C17 <0> d           2.367   5.851   4.198  0.00  0.00     0.001 A 
ATOM     17  C16 <0> d           2.467   4.471   4.111  0.00  0.00     0.037 A 
BRANCH  16  18
ATOM     18  S1  <0> d           0.960   6.676   3.530  0.00  0.00    -0.134 SA
ATOM     19  C21 <0> d           1.274   8.429   3.875  0.00  0.00     0.095 C 
ENDBRANCH  16  18
ENDBRANCH   8  11
ENDBRANCH   6   7
BRANCH   1  20
ATOM     20  C7  <0> d           1.320   0.185   1.952  0.00  0.00     0.256 C 
ATOM     21  N1  <0> d           0.018  -0.111   1.766  0.00  0.00    -0.344 N 
ATOM     22  C2  <0> d          -0.736   0.491   0.659  0.00  0.00     0.083 C 
ATOM     23  C6  <0> d          -0.675  -1.039   2.671  0.00  0.00     0.126 C 
ATOM     24  C1  <0> d           0.129   1.541  -0.041  0.00  0.00     0.032 C 
ATOM     25  C3  <0> d          -1.997   1.157   1.221  0.00  0.00     0.025 C 
ATOM     26  C4  <0> d          -2.788   0.132   2.037  0.00  0.00     0.004 C 
ATOM     27  C5  <0> d          -1.936  -0.356   3.211  0.00  0.00     0.020 C 
ATOM     28  O1  <0> d           1.860   1.018   1.249  0.00  0.00    -0.267 OA
ENDBRANCH   1  20
TORSDOF 4
ENDMDL
MODEL ZINC77305061
REMARK  6 active torsions:
REMARK  status: ('A' for Active; 'I' for Inactive)
REMARK    1  A    between atoms: N1_2  and  C2_3 
REMARK    2  A    between atoms: C2_3  and  C3_4 
REMARK       I    between atoms: C3_4  and  N2_6 
REMARK    3  A    between atoms: N2_6  and  C4_7 
REMARK    4  A    between atoms: C4_7  and  C5_8 
REMARK    5  A    between atoms: C5_8  and  C6_9 
REMARK    6  A    between atoms: C6_9  and  C7_10 
ROOT
ATOM      1  C3  <0> d           0.710  -1.985  -1.215  0.00  0.00     0.243 C 
ATOM      2  O1  <0> d           0.202  -2.603  -0.304  0.00  0.00    -0.272 OA
ATOM      3  N2  <0> d           1.293  -2.645  -2.235  0.00  0.00    -0.360 N 
ATOM      4  H7  <0> d           1.700  -2.151  -2.964  0.00  0.00     0.162 HD
ENDROOT
BRANCH   3   5
ATOM      5  C4  <0> d           1.313  -4.110  -2.243  0.00  0.00     0.123 C 
BRANCH   5   6
ATOM      6  C5  <0> d           2.029  -4.603  -3.502  0.00  0.00     0.025 C 
BRANCH   6   7
ATOM      7  C6  <0> d           2.050  -6.133  -3.510  0.00  0.00     0.048 C 
BRANCH   7   8
ATOM      8  C7  <0> d           2.755  -6.619  -4.750  0.00  0.00    -0.018 A 
ATOM      9  S1  <0> d           2.074  -6.995  -6.357  0.00  0.00    -0.106 SA
ATOM     10  C10 <0> d           3.590  -7.479  -7.166  0.00  0.00     0.050 A 
ATOM     11  C9  <0> d           4.498  -7.331  -6.171  0.00  0.00     0.008 A 
ATOM     12  C8  <0> d           4.071  -6.890  -4.933  0.00  0.00     0.015 A 
ENDBRANCH   7   8
ENDBRANCH   6   7
ENDBRANCH   5   6
ENDBRANCH   3   5
BRANCH   1  13
ATOM     13  C2  <0> d           0.690  -0.478  -1.207  0.00  0.00     0.334 C 
BRANCH  13  14
ATOM     14  N1  <0> d           0.002  -0.004   0.002  0.00  0.00    -0.071 N 
ATOM     15  C1  <0> d          -0.018   1.465   0.010  0.00  0.00     0.267 C 
ATOM     16  H4  <0> d           0.490  -0.338   0.820  0.00  0.00     0.277 HD
ATOM     17  H17 <0> d          -0.945  -0.353   0.009  0.00  0.00     0.277 HD
ENDBRANCH  13  14
ENDBRANCH   1  13
TORSDOF 6
ENDMDL
MODEL ZINC77336022
REMARK  5 active torsions:
REMARK  status: ('A' for Active; 'I' for Inactive)
REMARK    1  A    between atoms: C5_5  and  C9_10 
REMARK    2  A    between atoms: C6_6  and  O1_8 
REMARK    3  A    between atoms: C9_10  and  C11_12 
REMARK    4  A    between atoms: C9_10  and  N1_15 
REMARK    5  A    between atoms: C11_12  and  O2_13 
ROOT
ATOM      1  C1  <0> d           0.014   1.676   0.178  0.00  0.00     0.048 C 
ATOM      2  C2  <0> d           0.095   0.171   0.148  0.00  0.00    -0.059 A 
ATOM      3  C3  <0> d          -0.245  -0.516  -1.002  0.00  0.00     0.014 A 
ATOM      4  C4  <0> d          -0.172  -1.897  -1.033  0.00  0.00    -0.050 A 
ATOM      5  C5  <0> d           0.240  -2.592   0.088  0.00  0.00     0.018 A 
ATOM      6  C6  <0> d           0.581  -1.905   1.243  0.00  0.00     0.078 A 
ATOM      7  C7  <0> d           0.513  -0.519   1.269  0.00  0.00     0.044 A 
ATOM      8  C13 <0> d          -0.542  -2.643  -2.288  0.00  0.00     0.049 C 
ENDROOT
BRANCH   5   9
ATOM      9  C9  <0> d           0.319  -4.097   0.054  0.00  0.00     0.171 C 
ATOM     10  C10 <0> d          -1.095  -4.681   0.022  0.00  0.00     0.054 C 
BRANCH   9  11
ATOM     11  C11 <0> d           1.082  -4.540  -1.195  0.00  0.00     0.210 C 
BRANCH  11  12
ATOM     12  O2  <0> d           1.304  -5.951  -1.143  0.00  0.00    -0.393 OA
ATOM     13  C12 <0> d           2.014  -6.470  -2.269  0.00  0.00     0.201 C 
ENDBRANCH  11  12
ENDBRANCH   9  11
BRANCH   9  14
ATOM     14  N1  <0> d           1.020  -4.578   1.252  0.00  0.00    -0.064 N 
ATOM     15  H17 <0> d           0.459  -4.387   2.069  0.00  0.00     0.275 HD
ATOM     16  H18 <0> d           1.175  -5.572   1.175  0.00  0.00     0.275 HD
ATOM     17  H22 <0> d           1.907  -4.104   1.335  0.00  0.00     0.275 HD
ENDBRANCH   9  14
ENDBRANCH   5   9
BRANCH   6  18
ATOM     18  O1  <0> d           0.987  -2.587   2.346  0.00  0.00    -0.355 OA
ATOM     19  C8  <0> d           1.322  -1.814   3.501  0.00  0.00     0.210 C 
ENDBRANCH   6  18
TORSDOF 5
ENDMDL
MODEL ZINC77342316
REMARK  5 active torsions:
REMARK  status: ('A' for Active; 'I' for Inactive)
REMARK    1  A    between atoms: C6_6  and  C8_8 
REMARK    2  A    between atoms: C8_8  and  C9_9 
REMARK       I    between atoms: C9_9  and  N1_11 
REMARK    3  A    between atoms: N1_11  and  C10_12 
REMARK    4  A    between atoms: C10_12  and  C11_13 
REMARK    5  A    between atoms: N2_16  and  C15_18 
ROOT
ATOM      1  C10 <0> d           3.118  -4.203   4.338  0.00  0.00     0.128 C 
ENDROOT
BRANCH   1   2
ATOM      2  N1  <0> d           1.736  -3.871   3.984  0.00  0.00    -0.360 N 
ATOM      3  C9  <0> d           1.476  -3.187   2.852  0.00  0.00     0.221 C 
ATOM      4  O1  <0> d           2.386  -2.846   2.127  0.00  0.00    -0.273 OA
ATOM      5  H10 <0> d           1.008  -4.143   4.564  0.00  0.00     0.162 HD
BRANCH   3   6
ATOM      6  C8  <0> d           0.054  -2.845   2.489  0.00  0.00     0.141 C 
BRANCH   6   7
ATOM      7  C6  <0> d           0.037  -2.084   1.188  0.00  0.00    -0.043 A 
ATOM      8  C5  <0> d           0.040  -2.768  -0.013  0.00  0.00    -0.055 A 
ATOM      9  C4  <0> d           0.025  -2.071  -1.207  0.00  0.00     0.008 A 
ATOM     10  C20 <0> d           0.059  -4.275  -0.021  0.00  0.00     0.049 C 
ATOM     11  C3  <0> d           0.006  -0.689  -1.199  0.00  0.00     0.007 A 
ATOM     12  C2  <0> d           0.002  -0.004   0.002  0.00  0.00    -0.061 A 
ATOM     13  C1  <0> d          -0.018   1.503   0.010  0.00  0.00     0.048 C 
ATOM     14  C7  <0> d           0.023  -0.702   1.195  0.00  0.00     0.014 A 
ENDBRANCH   6   7
ENDBRANCH   3   6
ENDBRANCH   1   2
BRANCH   1  15
ATOM     15  C11 <0> d           3.135  -4.975   5.659  0.00  0.00     0.023 C 
ATOM     16  C14 <0> d           4.578  -5.385   6.044  0.00  0.00     0.129 C 
ATOM     17  N2  <0> d           4.548  -5.536   7.511  0.00  0.00    -0.379 N 
ATOM     18  C13 <0> d           3.446  -4.723   8.046  0.00  0.00     0.123 C 
ATOM     19  C12 <0> d           2.744  -4.056   6.846  0.00  0.00     0.028 C 
BRANCH  17  20
ATOM     20  C15 <0> d           5.414  -6.313   8.259  0.00  0.00     0.054 A 
ATOM     21  C18 <0> d           6.438  -7.051   7.625  0.00  0.00     0.168 A 
ATOM     22  N4  <0> d           7.259  -7.779   8.328  0.00  0.00    -0.180 NA
ATOM     23  N3  <0> d           7.140  -7.858   9.720  0.00  0.00    -0.239 N 
ATOM     24  C17 <0> d           6.174  -7.175  10.365  0.00  0.00     0.265 A 
ATOM     25  C19 <0> d           8.074  -8.691  10.482  0.00  0.00     0.183 C 
ATOM     26  C16 <0> d           5.282  -6.379   9.633  0.00  0.00     0.106 A 
ATOM     27  O2  <0> d           6.077  -7.249  11.580  0.00  0.00    -0.267 OA
ENDBRANCH  17  20
ENDBRANCH   1  15
TORSDOF 5
ENDMDL
MODEL ZINC77401453
REMARK  1 active torsions:
REMARK  status: ('A' for Active; 'I' for Inactive)
REMARK    1  A    between atoms: C2_3  and  C4_8 
ROOT
ATOM      1  C4  <0> d          -0.481   4.064  -0.725  0.00  0.00     0.012 A 
ATOM      2  C5  <0> d           0.138   3.883   0.513  0.00  0.00     0.017 A 
ATOM      3  C6  <0> d           0.557   4.971   1.244  0.00  0.00     0.031 A 
ATOM      4  C7  <0> d           0.368   6.264   0.754  0.00  0.00     0.041 A 
ATOM      5  C8  <0> d          -0.249   6.438  -0.480  0.00  0.00    -0.022 A 
ATOM      6  C9  <0> d          -0.667   5.358  -1.219  0.00  0.00     0.025 A 
ATOM      7  C10 <0> d          -0.304   7.929  -0.722  0.00  0.00     0.144 A 
ATOM      8  C11 <0> d           0.347   8.525   0.508  0.00  0.00     0.226 A 
ATOM      9  O1  <0> d           0.515   9.704   0.734  0.00  0.00    -0.273 OA
ATOM     10  N4  <0> d           0.703   7.502   1.303  0.00  0.00    -0.326 N 
ATOM     11  H10 <0> d           1.142   7.611   2.161  0.00  0.00     0.169 HD
ENDROOT
BRANCH   1  12
ATOM     12  C2  <0> d          -0.932   2.895  -1.510  0.00  0.00     0.162 A 
ATOM     13  N1  <0> d          -1.645   2.943  -2.692  0.00  0.00    -0.310 N 
ATOM     14  C1  <0> d          -2.083   4.160  -3.381  0.00  0.00     0.160 C 
ATOM     15  C3  <0> d          -1.874   1.679  -3.100  0.00  0.00     0.196 A 
ATOM     16  N3  <0> d          -1.309   0.850  -2.198  0.00  0.00    -0.251 N 
ATOM     17  S1  <0> d          -2.724   1.210  -4.510  0.00  0.00    -0.039 SA
ATOM     18  N2  <0> d          -0.724   1.645  -1.202  0.00  0.00    -0.153 NA
ATOM     19  H4  <0> d          -1.310  -0.119  -2.230  0.00  0.00     0.191 HD
ENDBRANCH   1  12
TORSDOF 1
ENDMDL
MODEL ZINC31945557
REMARK  6 active torsions:
REMARK  status: ('A' for Active; 'I' for Inactive)
REMARK    1  A    between atoms: C4_4  and  C7_7 
REMARK    2  A    between atoms: C7_7  and  C8_8 
REMARK    3  A    between atoms: C7_7  and  N1_14 
REMARK    4  A    between atoms: N2_17  and  C18_20 
REMARK    5  A    between atoms: C18_20  and  C19_21 
REMARK    6  A    between atoms: C19_21  and  C20_22 
ROOT
ATOM      1  N1  <0> d           3.539  -1.965  -0.776  0.00  0.00     0.105 N 
ATOM      2  C14 <0> d           2.517  -2.811  -0.144  0.00  0.00     0.304 C 
ATOM      3  C15 <0> d           2.312  -4.073  -0.986  0.00  0.00     0.302 C 
ATOM      4  N2  <0> d           3.588  -4.793  -1.103  0.00  0.00     0.092 N 
ATOM      5  C16 <0> d           4.610  -3.947  -1.735  0.00  0.00     0.302 C 
ATOM      6  C17 <0> d           4.815  -2.685  -0.894  0.00  0.00     0.304 C 
ENDROOT
BRANCH   1   7
ATOM      7  C7  <0> d           3.711  -0.707  -0.038  0.00  0.00     0.289 C 
BRANCH   7   8
ATOM      8  C4  <0> d           4.725   0.156  -0.744  0.00  0.00    -0.021 A 
ATOM      9  C3  <0> d           5.710   0.799  -0.019  0.00  0.00     0.010 A 
ATOM     10  C2  <0> d           6.640   1.590  -0.668  0.00  0.00     0.001 A 
ATOM     11  C1  <0> d           6.585   1.737  -2.041  0.00  0.00     0.000 A 
ATOM     12  C6  <0> d           5.600   1.093  -2.766  0.00  0.00     0.001 A 
ATOM     13  C5  <0> d           4.669   0.303  -2.118  0.00  0.00     0.010 A 
ENDBRANCH   7   8
BRANCH   7  14
ATOM     14  C8  <0> d           2.393   0.019   0.030  0.00  0.00    -0.021 A 
ATOM     15  C13 <0> d           1.973   0.581   1.222  0.00  0.00     0.010 A 
ATOM     16  C12 <0> d           0.766   1.251   1.283  0.00  0.00     0.001 A 
ATOM     17  C11 <0> d          -0.026   1.352   0.155  0.00  0.00     0.000 A 
ATOM     18  C10 <0> d           0.391   0.786  -1.036  0.00  0.00     0.001 A 
ATOM     19  C9  <0> d           1.600   0.120  -1.098  0.00  0.00     0.010 A 
ENDBRANCH   7  14
ENDBRANCH   1   7
BRANCH   4  20
ATOM     20  C18 <0> d           3.416  -6.051  -1.842  0.00  0.00     0.279 C 
BRANCH  20  21
ATOM     21  C19 <0> d           4.694  -6.886  -1.731  0.00  0.00     0.099 C 
BRANCH  21  22
ATOM     22  C20 <0> d           4.518  -8.177  -2.489  0.00  0.00     0.072 C 
ATOM     23  S1  <0> d           3.140  -8.480  -3.243  0.00  0.00    -0.066 SA
ATOM     24  N3  <0> d           5.521  -9.076  -2.531  0.00  0.00    -0.393 N 
ATOM     25  H24 <0> d           6.356  -8.892  -2.073  0.00  0.00     0.156 HD
ATOM     26  H25 <0> d           5.407  -9.907  -3.018  0.00  0.00     0.156 HD
ENDBRANCH  21  22
ENDBRANCH  20  21
ENDBRANCH   4  20
TORSDOF 6
ENDMDL
MODEL ZINC71489168
REMARK  1 active torsions:
REMARK  status: ('A' for Active; 'I' for Inactive)
REMARK    1  A    between atoms: C11_11  and  N1_12 
ROOT
ATOM      1  C1  <0> d          -0.019   1.526   0.010  0.00  0.00     0.012 C 
ATOM      2  C2  <0> d           0.002  -0.004   0.002  0.00  0.00     0.017 C 
ATOM      3  C3  <0> d           0.730  -0.504  -1.251  0.00  0.00     0.011 C 
ATOM      4  C4  <0> d           0.528  -2.014  -1.356  0.00  0.00     0.039 C 
ATOM      5  C5  <0> d           0.885  -2.688  -0.057  0.00  0.00    -0.050 A 
ATOM      6  C6  <0> d           1.124  -4.056  -0.083  0.00  0.00     0.009 A 
ATOM      7  C7  <0> d           1.450  -4.732   1.074  0.00  0.00     0.019 A 
ATOM      8  C8  <0> d           1.540  -4.043   2.270  0.00  0.00     0.011 A 
ATOM      9  C9  <0> d           1.306  -2.684   2.297  0.00  0.00     0.029 A 
ATOM     10  C10 <0> d           0.980  -2.001   1.132  0.00  0.00    -0.020 A 
ATOM     11  C11 <0> d           0.751  -0.515   1.231  0.00  0.00     0.220 C 
ATOM     12 Br1  <0> d           1.982  -4.962   3.863  0.00  0.00    -0.051 Br
ENDROOT
BRANCH  11  13
ATOM     13  N1  <0> d          -0.040  -0.225   2.435  0.00  0.00    -0.071 N 
ATOM     14  H13 <0> d          -0.935  -0.686   2.369  0.00  0.00     0.275 HD
ATOM     15  H14 <0> d           0.452  -0.562   3.249  0.00  0.00     0.275 HD
ATOM     16  H15 <0> d          -0.179   0.771   2.514  0.00  0.00     0.275 HD
ENDBRANCH  11  13
TORSDOF 1
ENDMDL
MODEL ZINC05046831
REMARK  6 active torsions:
REMARK  status: ('A' for Active; 'I' for Inactive)
REMARK    1  A    between atoms: C7_7  and  O1_8 
REMARK    2  A    between atoms: O1_8  and  C8_9 
REMARK    3  A    between atoms: C8_9  and  C9_10 
REMARK       I    between atoms: C9_10  and  N1_12 
REMARK    4  A    between atoms: N1_12  and  C10_13 
REMARK    5  A    between atoms: N1_12  and  C17_21 
REMARK    6  A    between atoms: C10_13  and  C11_14 
ROOT
ATOM      1  C9  <0> d          -2.792   3.436   1.669  0.00  0.00     0.244 C 
ATOM      2  O2  <0> d          -2.016   3.772   0.800  0.00  0.00    -0.271 OA
ATOM      3  N1  <0> d          -3.174   2.147   1.769  0.00  0.00    -0.341 N 
ENDROOT
BRANCH   3   4
ATOM      4  C10 <0> d          -4.193   1.760   2.748  0.00  0.00     0.165 C 
BRANCH   4   5
ATOM      5  C11 <0> d          -3.523   1.327   4.026  0.00  0.00    -0.039 A 
ATOM      6  C16 <0> d          -3.310   2.244   5.038  0.00  0.00     0.032 A 
ATOM      7  C15 <0> d          -2.695   1.847   6.213  0.00  0.00     0.034 A 
ATOM      8  C14 <0> d          -2.293   0.533   6.372  0.00  0.00     0.024 A 
ATOM      9 Cl1  <0> d          -2.427   2.997   7.485  0.00  0.00    -0.084 Cl
ATOM     10  C13 <0> d          -2.507  -0.383   5.359  0.00  0.00     0.002 A 
ATOM     11  C12 <0> d          -3.126   0.013   4.189  0.00  0.00     0.009 A 
ENDBRANCH   4   5
ENDBRANCH   3   4
BRANCH   3  12
ATOM     12  C17 <0> d          -2.571   1.135   0.899  0.00  0.00     0.102 C 
ATOM     13  C20 <0> d          -2.864   1.486  -0.579  0.00  0.00     0.165 C 
ATOM     14  S1  <0> d          -1.375   0.846  -1.449  0.00  0.00     0.146 S 
ATOM     15  C19 <0> d          -0.403   0.258   0.001  0.00  0.00     0.142 C 
ATOM     16  O3  <0> d          -0.691   1.934  -2.054  0.00  0.00    -0.228 OA
ATOM     17  O4  <0> d          -1.747  -0.273  -2.241  0.00  0.00    -0.228 OA
ATOM     18  C18 <0> d          -1.051   1.098   1.139  0.00  0.00     0.041 C 
ENDBRANCH   3  12
BRANCH   1  19
ATOM     19  C8  <0> d          -3.330   4.459   2.636  0.00  0.00     0.278 C 
BRANCH  19  20
ATOM     20  O1  <0> d          -2.868   5.758   2.261  0.00  0.00    -0.341 OA
BRANCH  20  21
ATOM     21  C7  <0> d          -3.265   6.801   3.036  0.00  0.00     0.081 A 
ATOM     22  C2  <0> d          -4.436   7.484   2.736  0.00  0.00    -0.028 A 
ATOM     23  C1  <0> d          -5.268   7.068   1.551  0.00  0.00     0.051 C 
ATOM     24  C3  <0> d          -4.840   8.540   3.529  0.00  0.00     0.009 A 
ATOM     25  C4  <0> d          -4.074   8.925   4.613  0.00  0.00     0.001 A 
ATOM     26  C5  <0> d          -2.904   8.251   4.910  0.00  0.00     0.009 A 
ATOM     27  C6  <0> d          -2.498   7.190   4.124  0.00  0.00    -0.028 A 
ATOM     28  C21 <0> d          -1.223   6.456   4.449  0.00  0.00     0.051 C 
ENDBRANCH  20  21
ENDBRANCH  19  20
ENDBRANCH   1  19
TORSDOF 6
ENDMDL
MODEL ZINC77892398
REMARK  4 active torsions:
REMARK  status: ('A' for Active; 'I' for Inactive)
REMARK    1  A    between atoms: C3_3  and  C9_12 
REMARK       I    between atoms: C9_12  and  N3_14 
REMARK    2  A    between atoms: N3_14  and  C10_15 
REMARK    3  A    between atoms: C10_15  and  C11_16 
REMARK       I    between atoms: C11_16  and  N4_18 
REMARK    4  A    between atoms: N4_18  and  C12_19 
ROOT
ATOM      1  C9  <0> d          -0.014  -0.355  -2.505  0.00  0.00     0.272 C 
ATOM      2  O1  <0> d          -0.040   0.834  -2.759  0.00  0.00    -0.266 OA
ATOM      3  N3  <0> d           0.000  -1.258  -3.506  0.00  0.00    -0.347 N 
ATOM      4  H7  <0> d           0.021  -2.206  -3.303  0.00  0.00     0.163 HD
ENDROOT
BRANCH   3   5
ATOM      5  C10 <0> d          -0.015  -0.807  -4.900  0.00  0.00     0.226 C 
BRANCH   5   6
ATOM      6  C11 <0> d           0.006  -2.003  -5.815  0.00  0.00     0.239 C 
ATOM      7  O2  <0> d           0.031  -3.123  -5.349  0.00  0.00    -0.271 OA
ATOM      8  N4  <0> d          -0.004  -1.830  -7.152  0.00  0.00    -0.326 N 
ATOM      9  H10 <0> d          -0.092  -0.939  -7.524  0.00  0.00     0.169 HD
BRANCH   8  10
ATOM     10  C12 <0> d           0.114  -2.935  -8.002  0.00  0.00     0.035 A 
ATOM     11  C17 <0> d           0.802  -2.821  -9.201  0.00  0.00     0.037 A 
ATOM     12  C16 <0> d           0.923  -3.914 -10.040  0.00  0.00    -0.050 A 
ATOM     13  C15 <0> d           0.347  -5.121  -9.688  0.00  0.00    -0.052 A 
ATOM     14  C18 <0> d           1.617  -4.050 -11.379  0.00  0.00     0.039 C 
ATOM     15  C14 <0> d          -0.345  -5.235  -8.493  0.00  0.00     0.010 A 
ATOM     16  C20 <0> d           0.615  -6.149 -10.766  0.00  0.00     0.039 C 
ATOM     17  C13 <0> d          -0.464  -4.149  -7.650  0.00  0.00     0.030 A 
ATOM     18  C19 <0> d           1.778  -5.569 -11.598  0.00  0.00     0.009 C 
ENDBRANCH   8  10
ENDBRANCH   5   6
ENDBRANCH   3   5
BRANCH   1  19
ATOM     19  C3  <0> d           0.001  -0.809  -1.101  0.00  0.00     0.149 A 
ATOM     20  C2  <0> d          -0.011  -0.004   0.002  0.00  0.00     0.048 A 
ATOM     21  C1  <0> d          -0.041   1.503   0.010  0.00  0.00     0.071 C 
ATOM     22  N2  <0> d           0.016  -0.819   1.093  0.00  0.00    -0.307 N 
ATOM     23  C4  <0> d           0.035  -2.113   0.637  0.00  0.00     0.135 A 
ATOM     24  C5  <0> d           0.023  -0.558   2.435  0.00  0.00     0.122 A 
ATOM     25  N1  <0> d           0.029  -2.089  -0.686  0.00  0.00    -0.223 NA
ATOM     26  C8  <0> d           0.061  -3.178   1.563  0.00  0.00     0.052 A 
ATOM     27  C7  <0> d           0.077  -2.904   2.893  0.00  0.00     0.029 A 
ATOM     28  C6  <0> d           0.052  -1.568   3.331  0.00  0.00     0.050 A 
ATOM     29 Cl1  <0> d           0.061  -1.214   5.030  0.00  0.00    -0.083 Cl
ENDBRANCH   1  19
TORSDOF 4
ENDMDL
MODEL ZINC07986385
REMARK  5 active torsions:
REMARK  status: ('A' for Active; 'I' for Inactive)
REMARK    1  A    between atoms: N1_7  and  C8_11 
REMARK    2  A    between atoms: C8_11  and  C9_12 
REMARK       I    between atoms: C9_12  and  N2_14 
REMARK    3  A    between atoms: N2_14  and  C10_15 
REMARK    4  A    between atoms: N4_19  and  C13_20 
REMARK    5  A    between atoms: C13_20  and  C14_21 
ROOT
ATOM      1  C9  <0> d          -1.612   2.524   1.445  0.00  0.00     0.241 C 
ATOM      2  O3  <0> d          -0.966   2.062   2.361  0.00  0.00    -0.271 OA
ATOM      3  N2  <0> d          -2.690   3.292   1.700  0.00  0.00    -0.310 N 
ATOM      4  H7  <0> d          -3.207   3.662   0.968  0.00  0.00     0.170 HD
ENDROOT
BRANCH   1   5
ATOM      5  C8  <0> d          -1.210   2.241   0.020  0.00  0.00     0.237 C 
BRANCH   5   6
ATOM      6  N1  <0> d          -0.017   1.390   0.010  0.00  0.00    -0.282 N 
ATOM      7  C5  <0> d           0.002  -0.004   0.002  0.00  0.00     0.073 A 
ATOM      8  C4  <0> d           1.344  -0.384  -0.013  0.00  0.00     0.107 A 
ATOM      9  C6  <0> d          -0.993  -0.969   0.007  0.00  0.00     0.033 A 
ATOM     10  C3  <0> d           1.677  -1.730  -0.023  0.00  0.00     0.040 A 
ATOM     11  O2  <0> d           2.084   0.751  -0.014  0.00  0.00    -0.259 OA
ATOM     12  C2  <0> d           0.680  -2.686  -0.018  0.00  0.00     0.003 A 
ATOM     13  C1  <0> d          -0.651  -2.308  -0.003  0.00  0.00     0.002 A 
ATOM     14  C7  <0> d           1.263   1.813  -0.000  0.00  0.00     0.373 A 
ATOM     15  O1  <0> d           1.619   2.976   0.002  0.00  0.00    -0.237 OA
ENDBRANCH   5   6
ENDBRANCH   1   5
BRANCH   3  16
ATOM     16  C10 <0> d          -3.062   3.555   3.019  0.00  0.00     0.128 A 
ATOM     17  N4  <0> d          -4.112   4.309   3.418  0.00  0.00    -0.249 N 
ATOM     18  N3  <0> d          -4.130   4.314   4.818  0.00  0.00    -0.183 NA
ATOM     19  C12 <0> d          -3.124   3.596   5.247  0.00  0.00     0.142 A 
ATOM     20  C11 <0> d          -2.431   3.104   4.137  0.00  0.00     0.071 A 
BRANCH  17  21
ATOM     21  C13 <0> d          -5.062   4.996   2.540  0.00  0.00     0.199 C 
BRANCH  21  22
ATOM     22  C14 <0> d          -6.218   4.078   2.236  0.00  0.00     0.002 A 
ATOM     23  S1  <0> d          -6.408   2.916   0.893  0.00  0.00    -0.105 SA
ATOM     24  C17 <0> d          -8.027   2.299   1.322  0.00  0.00     0.050 A 
ATOM     25  C16 <0> d          -8.313   3.013   2.438  0.00  0.00     0.008 A 
ATOM     26  C15 <0> d          -7.386   3.925   2.906  0.00  0.00     0.017 A 
ENDBRANCH  21  22
ENDBRANCH  17  21
ENDBRANCH   3  16
TORSDOF 5
ENDMDL
MODEL ZINC77954966
REMARK  5 active torsions:
REMARK  status: ('A' for Active; 'I' for Inactive)
REMARK    1  A    between atoms: N1_2  and  C2_3 
REMARK       I    between atoms: N1_2  and  C9_10 
REMARK    2  A    between atoms: C2_3  and  C3_4 
REMARK    3  A    between atoms: C9_10  and  C10_12 
REMARK    4  A    between atoms: C15_17  and  N2_18 
REMARK       I    between atoms: N2_18  and  C16_19 
REMARK    5  A    between atoms: C16_19  and  C17_21 
ROOT
ATOM      1  C10 <0> d          -0.174   0.014  -2.489  0.00  0.00     0.059 A 
ATOM      2  C11 <0> d           0.006   1.399  -2.507  0.00  0.00     0.019 A 
ATOM      3  C12 <0> d           0.051   2.071  -3.709  0.00  0.00     0.001 A 
ATOM      4  C13 <0> d          -0.080   1.380  -4.902  0.00  0.00     0.002 A 
ATOM      5  C14 <0> d          -0.258   0.011  -4.901  0.00  0.00     0.030 A 
ATOM      6  C15 <0> d          -0.301  -0.684  -3.700  0.00  0.00     0.050 A 
ENDROOT
BRANCH   6   7
ATOM      7  N2  <0> d          -0.475  -2.065  -3.696  0.00  0.00    -0.322 N 
ATOM      8  C16 <0> d          -0.185  -2.783  -4.799  0.00  0.00     0.257 C 
ATOM      9  O2  <0> d           0.330  -2.243  -5.759  0.00  0.00    -0.267 OA
ATOM     10  H15 <0> d          -0.804  -2.510  -2.900  0.00  0.00     0.169 HD
BRANCH   8  11
ATOM     11  C17 <0> d          -0.493  -4.225  -4.841  0.00  0.00     0.051 A 
ATOM     12  C23 <0> d          -1.087  -4.868  -3.747  0.00  0.00     0.134 A 
ATOM     13  N3  <0> d          -1.375  -6.140  -3.762  0.00  0.00    -0.259 NA
ATOM     14  C20 <0> d          -1.113  -6.937  -4.823  0.00  0.00     0.074 A 
ATOM     15  C19 <0> d          -0.508  -6.329  -5.950  0.00  0.00     0.034 A 
ATOM     16  C21 <0> d          -1.370  -8.315  -4.954  0.00  0.00     0.040 A 
ATOM     17  C18 <0> d          -0.195  -4.993  -5.977  0.00  0.00     0.039 A 
ATOM     18  S1  <0> d          -0.335  -7.672  -7.097  0.00  0.00    -0.100 SA
ATOM     19  C22 <0> d          -1.045  -8.962  -6.089  0.00  0.00     0.053 A 
ENDBRANCH   8  11
ENDBRANCH   6   7
BRANCH   1  20
ATOM     20  C9  <0> d          -0.223  -0.712  -1.206  0.00  0.00     0.256 C 
ATOM     21  N1  <0> d          -0.909  -0.197  -0.166  0.00  0.00    -0.348 N 
ATOM     22  C1  <0> d          -1.707   1.019  -0.346  0.00  0.00     0.153 C 
ATOM     23  O1  <0> d           0.355  -1.774  -1.085  0.00  0.00    -0.267 OA
BRANCH  21  24
ATOM     24  C2  <0> d          -0.858  -0.853   1.143  0.00  0.00     0.164 C 
BRANCH  24  25
ATOM     25  C3  <0> d          -1.966  -1.869   1.240  0.00  0.00    -0.040 A 
ATOM     26  C8  <0> d          -1.747  -3.172   0.836  0.00  0.00     0.009 A 
ATOM     27  C7  <0> d          -2.762  -4.105   0.928  0.00  0.00     0.001 A 
ATOM     28  C6  <0> d          -4.001  -3.733   1.417  0.00  0.00     0.000 A 
ATOM     29  C5  <0> d          -4.222  -2.428   1.816  0.00  0.00     0.001 A 
ATOM     30  C4  <0> d          -3.205  -1.496   1.727  0.00  0.00     0.009 A 
ENDBRANCH  24  25
ENDBRANCH  21  24
ENDBRANCH   1  20
TORSDOF 5
ENDMDL
MODEL ZINC78643276
REMARK  3 active torsions:
REMARK  status: ('A' for Active; 'I' for Inactive)
REMARK    1  A    between atoms: N1_9  and  C9_10 
REMARK    2  A    between atoms: C9_10  and  C10_11 
REMARK    3  A    between atoms: N2_14  and  C15_17 
ROOT
ATOM      1  C15 <0> d           7.168   1.649   4.773  0.00  0.00     0.395 C 
ATOM      2  C16 <0> d           8.534   2.180   4.644  0.00  0.00     0.089 C 
ATOM      3  N3  <0> d           9.589   2.591   4.545  0.00  0.00    -0.195 NA
ENDROOT
BRANCH   1   4
ATOM      4  N2  <0> d           6.636   1.337   3.440  0.00  0.00     0.101 N 
ATOM      5  C12 <0> d           5.202   1.030   3.504  0.00  0.00     0.274 C 
ATOM      6  C11 <0> d           4.652   0.853   2.086  0.00  0.00     0.036 C 
ATOM      7  C10 <0> d           5.406  -0.283   1.390  0.00  0.00     0.007 C 
ATOM      8  C14 <0> d           6.903   0.039   1.379  0.00  0.00     0.036 C 
ATOM      9  C13 <0> d           7.387   0.239   2.817  0.00  0.00     0.274 C 
BRANCH   7  10
ATOM     10  C9  <0> d           4.903  -0.424  -0.048  0.00  0.00     0.127 C 
BRANCH  10  11
ATOM     11  N1  <0> d           3.501  -0.849  -0.036  0.00  0.00    -0.380 N 
ATOM     12  C4  <0> d           2.405   0.014  -0.021  0.00  0.00     0.036 A 
ATOM     13  C3  <0> d           2.377   1.411  -0.013  0.00  0.00     0.030 A 
ATOM     14  C5  <0> d           1.206  -0.682  -0.013  0.00  0.00    -0.030 A 
ATOM     15  C2  <0> d           1.174   2.082   0.002  0.00  0.00     0.002 A 
ATOM     16  C1  <0> d          -0.017   1.378   0.010  0.00  0.00     0.001 A 
ATOM     17  C6  <0> d           0.002  -0.004   0.002  0.00  0.00     0.009 A 
ATOM     18  C7  <0> d           1.510  -2.163  -0.023  0.00  0.00     0.060 A 
ATOM     19  C8  <0> d           3.046  -2.241  -0.038  0.00  0.00     0.128 A 
ENDBRANCH  10  11
ENDBRANCH   7  10
ENDBRANCH   1   4
TORSDOF 3
ENDMDL
MODEL ZINC08073598
REMARK  3 active torsions:
REMARK  status: ('A' for Active; 'I' for Inactive)
REMARK    1  A    between atoms: N1_7  and  C5_8 
REMARK    2  A    between atoms: C5_8  and  C6_9 
REMARK       I    between atoms: C6_9  and  N2_11 
REMARK    3  A    between atoms: N2_11  and  C7_12 
ROOT
ATOM      1  C6  <0> d          -0.743   1.582  -1.213  0.00  0.00     0.240 C 
ATOM      2  O2  <0> d          -1.734   2.271  -1.088  0.00  0.00    -0.271 OA
ATOM      3  N2  <0> d          -0.288   1.272  -2.443  0.00  0.00    -0.324 N 
ATOM      4  H7  <0> d           0.547   0.790  -2.544  0.00  0.00     0.169 HD
ENDROOT
BRANCH   3   5
ATOM      5  C7  <0> d          -1.023   1.647  -3.576  0.00  0.00     0.055 A 
ATOM      6  C12 <0> d          -0.380   1.818  -4.795  0.00  0.00     0.040 A 
ATOM      7  C11 <0> d          -1.105   2.184  -5.914  0.00  0.00     0.061 A 
ATOM      8 Br1  <0> d           1.487   1.544  -4.926  0.00  0.00    -0.049 Br
ATOM      9  C10 <0> d          -2.473   2.392  -5.821  0.00  0.00     0.103 A 
ATOM     10  C9  <0> d          -3.118   2.225  -4.601  0.00  0.00     0.104 A 
ATOM     11  O3  <0> d          -3.168   2.761  -6.931  0.00  0.00    -0.346 OA
ATOM     12  C8  <0> d          -2.392   1.853  -3.480  0.00  0.00     0.070 A 
ATOM     13  O4  <0> d          -4.461   2.419  -4.491  0.00  0.00    -0.346 OA
ATOM     14  C14 <0> d          -5.094   3.151  -5.546  0.00  0.00     0.202 C 
ATOM     15  C13 <0> d          -4.590   2.596  -6.885  0.00  0.00     0.202 C 
ENDBRANCH   3   5
BRANCH   1  16
ATOM     16  C5  <0> d          -0.021   1.073   0.008  0.00  0.00     0.235 C 
BRANCH  16  17
ATOM     17  N1  <0> d          -0.707   1.544   1.213  0.00  0.00    -0.303 N 
ATOM     18  C2  <0> d          -0.356   2.728   1.789  0.00  0.00     0.018 A 
ATOM     19  C1  <0> d           0.742   3.575   1.200  0.00  0.00     0.069 C 
ATOM     20  C3  <0> d          -1.009   3.124   2.885  0.00  0.00     0.080 A 
ATOM     21  S1  <0> d          -2.157   1.780   3.131  0.00  0.00    -0.039 SA
ATOM     22  C4  <0> d          -1.694   0.807   1.772  0.00  0.00     0.290 A 
ATOM     23  O1  <0> d          -2.143  -0.267   1.412  0.00  0.00    -0.259 OA
ENDBRANCH  16  17
ENDBRANCH   1  16
TORSDOF 3
ENDMDL
MODEL ZINC78677859
REMARK  2 active torsions:
REMARK  status: ('A' for Active; 'I' for Inactive)
REMARK    1  A    between atoms: C8_10  and  N2_11 
REMARK       I    between atoms: N2_11  and  C9_12 
REMARK    2  A    between atoms: C9_12  and  C10_14 
ROOT
ATOM      1  N2  <0> d          -1.203  -0.719   0.010  0.00  0.00    -0.326 N 
ATOM      2  C9  <0> d          -2.375  -0.063   0.127  0.00  0.00     0.231 C 
ATOM      3  O1  <0> d          -2.393   1.150   0.134  0.00  0.00    -0.272 OA
ATOM      4  H7  <0> d          -1.194  -1.686  -0.062  0.00  0.00     0.169 HD
ENDROOT
BRANCH   1   5
ATOM      5  C8  <0> d           0.002  -0.003  -0.006  0.00  0.00     0.035 A 
ATOM      6  C1  <0> d           1.140  -0.547   0.585  0.00  0.00     0.032 A 
ATOM      7  C2  <0> d           2.332   0.142   0.577  0.00  0.00     0.033 A 
ATOM      8  C3  <0> d           2.407   1.394  -0.025  0.00  0.00     0.042 A 
ATOM      9  N1  <0> d           3.430   2.304  -0.191  0.00  0.00    -0.365 N 
ATOM     10  C4  <0> d           1.260   1.946  -0.623  0.00  0.00    -0.006 A 
ATOM     11  C6  <0> d           2.970   3.401  -0.866  0.00  0.00     0.089 A 
ATOM     12  H1  <0> d           4.339   2.184   0.125  0.00  0.00     0.165 HD
ATOM     13  C5  <0> d           1.669   3.248  -1.157  0.00  0.00     0.030 A 
ATOM     14  C7  <0> d           0.057   1.239  -0.609  0.00  0.00     0.043 A 
ENDBRANCH   1   5
BRANCH   2  15
ATOM     15  C10 <0> d          -3.663  -0.836   0.249  0.00  0.00     0.042 C 
ATOM     16  C15 <0> d          -4.835   0.140   0.368  0.00  0.00     0.024 C 
ATOM     17  C14 <0> d          -6.142  -0.645   0.492  0.00  0.00    -0.013 C 
ATOM     18  C13 <0> d          -6.088  -1.531   1.738  0.00  0.00     0.009 C 
ATOM     19  C16 <0> d          -6.331  -1.520  -0.749  0.00  0.00     0.009 C 
ATOM     20  C12 <0> d          -4.916  -2.507   1.620  0.00  0.00    -0.013 C 
ATOM     21  C11 <0> d          -3.609  -1.722   1.496  0.00  0.00     0.024 C 
ATOM     22  C18 <0> d          -5.105  -3.383   0.379  0.00  0.00     0.009 C 
ATOM     23  C17 <0> d          -5.159  -2.497  -0.867  0.00  0.00    -0.013 C 
ATOM     24  C19 <0> d          -3.851  -1.712  -0.991  0.00  0.00     0.024 C 
ENDBRANCH   2  15
TORSDOF 2
ENDMDL
MODEL ZINC00810941
REMARK  5 active torsions:
REMARK  status: ('A' for Active; 'I' for Inactive)
REMARK    1  A    between atoms: O1_2  and  C2_3 
REMARK    2  A    between atoms: C7_8  and  N1_9 
REMARK       I    between atoms: N1_9  and  C8_10 
REMARK    3  A    between atoms: C8_10  and  C9_12 
REMARK    4  A    between atoms: N2_15  and  S1_18 
REMARK    5  A    between atoms: S1_18  and  C14_21 
ROOT
ATOM      1  C9  <0> d          -2.941   2.341   5.849  0.00  0.00     0.081 C 
ATOM      2  C10 <0> d          -3.839   1.228   5.303  0.00  0.00     0.034 C 
ATOM      3  C11 <0> d          -4.288   0.327   6.458  0.00  0.00     0.136 C 
ATOM      4  N2  <0> d          -4.920   1.161   7.489  0.00  0.00    -0.307 N 
ATOM      5  C12 <0> d          -4.178   2.313   8.019  0.00  0.00     0.136 C 
ATOM      6  C13 <0> d          -3.730   3.192   6.847  0.00  0.00     0.034 C 
ENDROOT
BRANCH   1   7
ATOM      7  C8  <0> d          -2.470   3.209   4.711  0.00  0.00     0.226 C 
ATOM      8  N1  <0> d          -1.749   2.671   3.707  0.00  0.00    -0.324 N 
ATOM      9  H8  <0> d          -1.602   1.713   3.675  0.00  0.00     0.169 HD
ATOM     10  O2  <0> d          -2.738   4.392   4.699  0.00  0.00    -0.273 OA
BRANCH   8  11
ATOM     11  C7  <0> d          -1.214   3.496   2.709  0.00  0.00     0.068 A 
ATOM     12  C2  <0> d          -0.829   2.953   1.485  0.00  0.00     0.095 A 
ATOM     13  C3  <0> d          -0.306   3.774   0.500  0.00  0.00     0.039 A 
ATOM     14  C4  <0> d          -0.162   5.129   0.734  0.00  0.00     0.003 A 
ATOM     15  C5  <0> d          -0.539   5.668   1.950  0.00  0.00     0.002 A 
ATOM     16  C6  <0> d          -1.062   4.856   2.938  0.00  0.00     0.032 A 
BRANCH  12  17
ATOM     17  O1  <0> d          -0.972   1.620   1.257  0.00  0.00    -0.354 OA
ATOM     18  C1  <0> d          -0.562   1.133  -0.023  0.00  0.00     0.210 C 
ENDBRANCH  12  17
ENDBRANCH   8  11
ENDBRANCH   1   7
BRANCH   4  19
ATOM     19  S1  <0> d          -6.440   0.808   8.046  0.00  0.00     0.262 S 
ATOM     20  O3  <0> d          -6.714  -0.531   7.656  0.00  0.00    -0.200 OA
ATOM     21  O4  <0> d          -6.485   1.231   9.401  0.00  0.00    -0.200 OA
BRANCH  19  22
ATOM     22  C14 <0> d          -7.569   1.831   7.161  0.00  0.00     0.102 A 
ATOM     23  C19 <0> d          -7.760   1.639   5.804  0.00  0.00     0.057 A 
ATOM     24  C18 <0> d          -8.646   2.442   5.109  0.00  0.00     0.027 A 
ATOM     25 Cl1  <0> d          -6.886   0.389   4.973  0.00  0.00    -0.083 Cl
ATOM     26  C17 <0> d          -9.342   3.436   5.771  0.00  0.00     0.025 A 
ATOM     27  C16 <0> d          -9.151   3.629   7.128  0.00  0.00     0.035 A 
ATOM     28  C15 <0> d          -8.268   2.822   7.823  0.00  0.00     0.050 A 
ATOM     29 Cl2  <0> d         -10.025   4.878   7.958  0.00  0.00    -0.084 Cl
ENDBRANCH  19  22
ENDBRANCH   4  19
TORSDOF 5
ENDMDL
MODEL ZINC78894704
REMARK  2 active torsions:
REMARK  status: ('A' for Active; 'I' for Inactive)
REMARK       I    between atoms: N1_4  and  C8_10 
REMARK    1  A    between atoms: C5_6  and  N2_7 
REMARK    2  A    between atoms: C8_10  and  C9_12 
REMARK       I    between atoms: N3_16  and  C14_18 
REMARK       I    between atoms: C14_18  and  N4_20 
ROOT
ATOM      1  C1  <0> d           0.932   2.139   0.092  0.00  0.00     0.014 C 
ATOM      2  C2  <0> d           0.562   0.704  -0.287  0.00  0.00     0.032 C 
ATOM      3  C3  <0> d          -0.954   0.596  -0.562  0.00  0.00     0.132 C 
ATOM      4  N1  <0> d          -1.339  -0.727  -0.018  0.00  0.00    -0.349 N 
ATOM      5  C4  <0> d          -0.561  -0.848   1.238  0.00  0.00     0.159 C 
ATOM      6  C5  <0> d           0.823  -0.248   0.898  0.00  0.00     0.210 C 
ATOM      7  C8  <0> d          -2.201  -1.619  -0.545  0.00  0.00     0.225 C 
ATOM      8  O1  <0> d          -2.696  -1.413  -1.632  0.00  0.00    -0.273 OA
ENDROOT
BRANCH   7   9
ATOM      9  C9  <0> d          -2.548  -2.873   0.217  0.00  0.00     0.096 C 
ATOM     10  C13 <0> d          -3.329  -2.502   1.482  0.00  0.00     0.141 C 
ATOM     11  N3  <0> d          -3.772  -3.737   2.142  0.00  0.00    -0.334 N 
ATOM     12  C12 <0> d          -4.530  -4.724   1.361  0.00  0.00     0.127 C 
ATOM     13  C14 <0> d          -3.488  -3.961   3.441  0.00  0.00     0.316 C 
ATOM     14  C11 <0> d          -3.735  -5.070   0.098  0.00  0.00     0.021 C 
ATOM     15  C10 <0> d          -3.409  -3.782  -0.662  0.00  0.00     0.017 C 
ATOM     16  O2  <0> d          -2.939  -3.099   4.100  0.00  0.00    -0.247 OA
ATOM     17  N4  <0> d          -3.812  -5.140   4.008  0.00  0.00    -0.352 N 
ATOM     18  H25 <0> d          -4.183  -5.853   3.466  0.00  0.00     0.160 HD
ATOM     19  H26 <0> d          -3.675  -5.274   4.959  0.00  0.00     0.160 HD
ENDBRANCH   7   9
BRANCH   6  20
ATOM     20  N2  <0> d           1.352   0.500   2.047  0.00  0.00    -0.073 N 
ATOM     21  C6  <0> d           0.246   1.159   2.753  0.00  0.00     0.269 C 
ATOM     22  C7  <0> d           2.034  -0.425   2.962  0.00  0.00     0.269 C 
ATOM     23  H27 <0> d           2.006   1.196   1.723  0.00  0.00     0.279 HD
ENDBRANCH   6  20
TORSDOF 2
ENDMDL
MODEL ZINC17301765
REMARK  6 active torsions:
REMARK  status: ('A' for Active; 'I' for Inactive)
REMARK    1  A    between atoms: C3_3  and  C5_6 
REMARK       I    between atoms: C5_6  and  N1_8 
REMARK    2  A    between atoms: N1_8  and  C6_9 
REMARK    3  A    between atoms: C6_9  and  C7_10 
REMARK    4  A    between atoms: C7_10  and  C8_11 
REMARK    5  A    between atoms: C8_11  and  C9_12 
REMARK       I    between atoms: C9_12  and  N2_14 
REMARK    6  A    between atoms: N2_14  and  C10_15 
ROOT
ATOM      1  C9  <0> d           8.143  -3.523  -0.094  0.00  0.00     0.222 C 
ATOM      2  O3  <0> d           7.333  -4.426  -0.082  0.00  0.00    -0.273 OA
ATOM      3  N2  <0> d           9.461  -3.801  -0.110  0.00  0.00    -0.327 N 
ATOM      4  H11 <0> d          10.108  -3.083  -0.187  0.00  0.00     0.169 HD
ENDROOT
BRANCH   1   5
ATOM      5  C8  <0> d           7.675  -2.091  -0.090  0.00  0.00     0.105 C 
BRANCH   5   6
ATOM      6  C7  <0> d           6.146  -2.053  -0.071  0.00  0.00     0.029 C 
BRANCH   6   7
ATOM      7  C6  <0> d           5.671  -0.599  -0.068  0.00  0.00     0.123 C 
BRANCH   7   8
ATOM      8  N1  <0> d           4.207  -0.563  -0.049  0.00  0.00    -0.355 N 
ATOM      9  C5  <0> d           3.561   0.620  -0.043  0.00  0.00     0.275 C 
ATOM     10  O2  <0> d           4.195   1.659  -0.053  0.00  0.00    -0.265 OA
ATOM     11  H4  <0> d           3.701  -1.391  -0.041  0.00  0.00     0.162 HD
BRANCH   9  12
ATOM     12  C3  <0> d           2.095   0.655  -0.024  0.00  0.00     0.142 A 
ATOM     13  C2  <0> d           1.320   1.779  -0.016  0.00  0.00     0.045 A 
ATOM     14  C1  <0> d          -0.016   1.348   0.001  0.00  0.00     0.027 A 
ATOM     15  C4  <0> d           0.003  -0.003   0.003  0.00  0.00     0.143 A 
ATOM     16  O1  <0> d           1.276  -0.417  -0.012  0.00  0.00    -0.317 OA
ENDBRANCH   9  12
ENDBRANCH   7   8
ENDBRANCH   6   7
ENDBRANCH   5   6
ENDBRANCH   1   5
BRANCH   3  17
ATOM     17  C10 <0> d           9.898  -5.129  -0.015  0.00  0.00     0.037 A 
ATOM     18  C15 <0> d           9.161  -6.146  -0.605  0.00  0.00     0.069 A 
ATOM     19  C14 <0> d           9.596  -7.458  -0.516  0.00  0.00     0.107 A 
ATOM     20  C13 <0> d          10.768  -7.755   0.176  0.00  0.00     0.105 A 
ATOM     21  O4  <0> d           9.069  -8.620  -1.001  0.00  0.00    -0.323 OA
ATOM     22  C12 <0> d          11.498  -6.737   0.768  0.00  0.00     0.042 A 
ATOM     23  O5  <0> d          10.975  -9.104   0.123  0.00  0.00    -0.323 OA
ATOM     24  C11 <0> d          11.066  -5.428   0.673  0.00  0.00     0.032 A 
ATOM     25  C16 <0> d          10.141  -9.580  -0.950  0.00  0.00     0.352 C 
ENDBRANCH   3  17
TORSDOF 6
ENDMDL
MODEL ZINC78941436
REMARK  6 active torsions:
REMARK  status: ('A' for Active; 'I' for Inactive)
REMARK    1  A    between atoms: C2_2  and  C4_4 
REMARK    2  A    between atoms: C4_4  and  N1_5 
REMARK    3  A    between atoms: C7_9  and  C8_10 
REMARK    4  A    between atoms: C8_10  and  N3_11 
REMARK       I    between atoms: N3_11  and  C9_12 
REMARK       I    between atoms: C9_12  and  N4_14 
REMARK    5  A    between atoms: N4_14  and  C10_15 
REMARK    6  A    between atoms: N5_18  and  C14_20 
ROOT
ATOM      1  N3  <0> d          -2.599  -1.831   1.435  0.00  0.00    -0.336 N 
ATOM      2  C9  <0> d          -3.245  -2.842   0.821  0.00  0.00     0.316 C 
ATOM      3  O1  <0> d          -3.002  -3.994   1.125  0.00  0.00    -0.247 OA
ATOM      4  N4  <0> d          -4.162  -2.575  -0.131  0.00  0.00    -0.337 N 
ATOM      5  H15 <0> d          -2.793  -0.912   1.192  0.00  0.00     0.164 HD
ATOM      6  H16 <0> d          -4.356  -1.657  -0.374  0.00  0.00     0.164 HD
ENDROOT
BRANCH   1   7
ATOM      7  C8  <0> d          -1.603  -2.121   2.470  0.00  0.00     0.201 C 
BRANCH   7   8
ATOM      8  C7  <0> d          -1.032  -0.828   2.993  0.00  0.00     0.101 A 
ATOM      9  N1  <0> d          -0.008  -0.140   2.444  0.00  0.00    -0.344 N 
ATOM     10  C5  <0> d           0.194   0.971   3.217  0.00  0.00     0.109 A 
ATOM     11  C6  <0> d          -0.710   0.922   4.214  0.00  0.00     0.106 A 
ATOM     12  N2  <0> d          -1.444  -0.190   4.055  0.00  0.00    -0.353 N 
ATOM     13  H28 <0> d          -2.168  -0.472   4.634  0.00  0.00     0.166 HD
BRANCH   9  14
ATOM     14  C4  <0> d           0.742  -0.511   1.242  0.00  0.00     0.133 C 
BRANCH  14  15
ATOM     15  C2  <0> d           0.002  -0.004   0.002  0.00  0.00    -0.004 C 
ATOM     16  C1  <0> d          -0.019   1.526   0.010  0.00  0.00     0.011 C 
ATOM     17  C3  <0> d           0.718  -0.497  -1.257  0.00  0.00     0.011 C 
ENDBRANCH  14  15
ENDBRANCH   9  14
ENDBRANCH   7   8
ENDBRANCH   1   7
BRANCH   4  18
ATOM     18  C10 <0> d          -4.864  -3.674  -0.799  0.00  0.00     0.105 C 
ATOM     19  C13 <0> d          -5.407  -3.220  -2.171  0.00  0.00     0.148 C 
ATOM     20  N5  <0> d          -6.740  -3.829  -2.332  0.00  0.00    -0.379 N 
ATOM     21  C12 <0> d          -7.029  -4.656  -1.147  0.00  0.00     0.125 C 
ATOM     22  C11 <0> d          -6.151  -4.056  -0.021  0.00  0.00     0.046 C 
BRANCH  20  23
ATOM     23  C14 <0> d          -7.586  -3.654  -3.429  0.00  0.00     0.030 A 
ATOM     24  C19 <0> d          -8.821  -4.288  -3.464  0.00  0.00     0.029 A 
ATOM     25  C18 <0> d          -9.658  -4.108  -4.548  0.00  0.00     0.002 A 
ATOM     26  C17 <0> d          -9.263  -3.307  -5.603  0.00  0.00     0.000 A 
ATOM     27  C16 <0> d          -8.031  -2.679  -5.575  0.00  0.00     0.002 A 
ATOM     28  C15 <0> d          -7.192  -2.849  -4.491  0.00  0.00     0.029 A 
ENDBRANCH  20  23
ENDBRANCH   4  18
TORSDOF 6
ENDMDL
MODEL ZINC78981248
REMARK  5 active torsions:
REMARK  status: ('A' for Active; 'I' for Inactive)
REMARK    1  A    between atoms: C2_2  and  C3_3 
REMARK    2  A    between atoms: C2_2  and  N1_12 
REMARK       I    between atoms: N1_12  and  C11_13 
REMARK    3  A    between atoms: C11_13  and  C12_15 
REMARK    4  A    between atoms: C14_17  and  O4_23 
REMARK    5  A    between atoms: C17_20  and  O3_21 
ROOT
ATOM      1  N1  <0> d           0.688  -0.476  -1.203  0.00  0.00    -0.347 N 
ATOM      2  C11 <0> d           0.006  -0.608  -2.358  0.00  0.00     0.255 C 
ATOM      3  O2  <0> d          -1.178  -0.335  -2.400  0.00  0.00    -0.268 OA
ATOM      4  H10 <0> d           1.632  -0.695  -1.170  0.00  0.00     0.163 HD
ENDROOT
BRANCH   1   5
ATOM      5  C2  <0> d           0.002  -0.004   0.002  0.00  0.00     0.138 C 
ATOM      6  C1  <0> d          -0.019   1.526   0.010  0.00  0.00     0.039 C 
BRANCH   5   7
ATOM      7  C3  <0> d           0.731  -0.503   1.223  0.00  0.00     0.077 A 
ATOM      8  O1  <0> d           2.068  -0.562   1.351  0.00  0.00    -0.312 OA
ATOM      9  C10 <0> d           2.414  -1.051   2.558  0.00  0.00     0.086 A 
ATOM     10  C5  <0> d           1.225  -1.333   3.251  0.00  0.00     0.000 A 
ATOM     11  C9  <0> d           3.634  -1.302   3.174  0.00  0.00     0.038 A 
ATOM     12  C4  <0> d           0.140  -0.958   2.336  0.00  0.00     0.049 A 
ATOM     13  C6  <0> d           1.275  -1.860   4.541  0.00  0.00     0.014 A 
ATOM     14  C7  <0> d           2.486  -2.101   5.129  0.00  0.00     0.001 A 
ATOM     15  C8  <0> d           3.663  -1.824   4.450  0.00  0.00     0.003 A 
ENDBRANCH   5   7
ENDBRANCH   1   5
BRANCH   2  16
ATOM     16  C12 <0> d           0.697  -1.084  -3.572  0.00  0.00     0.068 A 
ATOM     17  C17 <0> d          -0.008  -1.222  -4.775  0.00  0.00     0.084 A 
ATOM     18  C16 <0> d           0.649  -1.665  -5.913  0.00  0.00     0.040 A 
ATOM     19  C15 <0> d           1.992  -1.980  -5.859  0.00  0.00     0.039 A 
ATOM     20  C14 <0> d           2.696  -1.850  -4.668  0.00  0.00     0.069 A 
ATOM     21  C13 <0> d           2.056  -1.405  -3.527  0.00  0.00     0.056 A 
BRANCH  17  22
ATOM     22  O3  <0> d          -1.330  -0.918  -4.828  0.00  0.00    -0.355 OA
ATOM     23  C18 <0> d          -1.984  -1.083  -6.088  0.00  0.00     0.210 C 
ENDBRANCH  17  22
BRANCH  20  24
ATOM     24  O4  <0> d           4.019  -2.163  -4.625  0.00  0.00    -0.356 OA
ATOM     25  C19 <0> d           4.618  -2.617  -5.840  0.00  0.00     0.210 C 
ENDBRANCH  20  24
ENDBRANCH   2  16
TORSDOF 5
ENDMDL
MODEL ZINC79015889
REMARK  7 active torsions:
REMARK  status: ('A' for Active; 'I' for Inactive)
REMARK    1  A    between atoms: C7_7  and  C8_8 
REMARK       I    between atoms: C8_8  and  N1_10 
REMARK    2  A    between atoms: N1_10  and  C9_11 
REMARK    3  A    between atoms: C9_11  and  C10_12 
REMARK    4  A    between atoms: C9_11  and  C14_16 
REMARK    5  A    between atoms: C10_12  and  C11_13 
REMARK       I    between atoms: C14_16  and  N2_18 
REMARK    6  A    between atoms: N3_21  and  C19_24 
REMARK    7  A    between atoms: C19_24  and  C20_25 
REMARK       I    between atoms: C20_25  and  N4_27 
ROOT
ATOM      1  C9  <0> d           0.579   0.066   4.893  0.00  0.00     0.177 C 
ENDROOT
BRANCH   1   2
ATOM      2  N1  <0> d           0.509  -0.784   3.702  0.00  0.00    -0.344 N 
ATOM      3  C8  <0> d           0.259  -0.236   2.496  0.00  0.00     0.252 C 
ATOM      4  O1  <0> d           0.091   0.964   2.397  0.00  0.00    -0.268 OA
ATOM      5  H9  <0> d           0.643  -1.741   3.781  0.00  0.00     0.163 HD
BRANCH   3   6
ATOM      6  C7  <0> d           0.189  -1.093   1.294  0.00  0.00     0.037 A 
ATOM      7  C2  <0> d          -0.006  -0.522   0.036  0.00  0.00    -0.046 A 
ATOM      8  C1  <0> d          -0.145   0.972  -0.102  0.00  0.00     0.049 C 
ATOM      9  C3  <0> d          -0.065  -1.328  -1.083  0.00  0.00     0.007 A 
ATOM     10  C4  <0> d           0.063  -2.700  -0.958  0.00  0.00     0.001 A 
ATOM     11  C5  <0> d           0.251  -3.273   0.287  0.00  0.00     0.001 A 
ATOM     12  C6  <0> d           0.312  -2.479   1.413  0.00  0.00     0.017 A 
ENDBRANCH   3   6
ENDBRANCH   1   2
BRANCH   1  13
ATOM     13  C10 <0> d          -0.831   0.283   5.448  0.00  0.00     0.038 C 
BRANCH  13  14
ATOM     14  C11 <0> d          -1.649   1.107   4.452  0.00  0.00    -0.020 C 
ATOM     15  C12 <0> d          -3.093   1.218   4.947  0.00  0.00     0.009 C 
ATOM     16  C13 <0> d          -1.044   2.506   4.327  0.00  0.00     0.009 C 
ENDBRANCH  13  14
ENDBRANCH   1  13
BRANCH   1  17
ATOM     17  C14 <0> d           1.432  -0.604   5.939  0.00  0.00     0.242 C 
ATOM     18  O2  <0> d           1.545  -1.811   5.947  0.00  0.00    -0.271 OA
ATOM     19  N2  <0> d           2.071   0.139   6.865  0.00  0.00    -0.347 N 
ATOM     20  C18 <0> d           2.995  -0.482   7.825  0.00  0.00     0.156 C 
ATOM     21  C15 <0> d           1.857   1.592   6.945  0.00  0.00     0.156 C 
ATOM     22  C17 <0> d           2.610  -0.038   9.235  0.00  0.00     0.293 C 
ATOM     23  N3  <0> d           2.554   1.429   9.287  0.00  0.00     0.100 N 
ATOM     24  C16 <0> d           1.512   1.954   8.394  0.00  0.00     0.293 C 
BRANCH  23  25
ATOM     25  C19 <0> d           2.353   1.900  10.664  0.00  0.00     0.374 C 
BRANCH  25  26
ATOM     26  C20 <0> d           3.560   1.551  11.495  0.00  0.00     0.245 C 
ATOM     27  O3  <0> d           4.496   0.968  10.991  0.00  0.00    -0.272 OA
ATOM     28  N4  <0> d           3.600   1.888  12.800  0.00  0.00    -0.364 N 
ATOM     29  C21 <0> d           4.773   1.548  13.608  0.00  0.00     0.149 C 
ATOM     30  H29 <0> d           2.851   2.355  13.204  0.00  0.00     0.161 HD
ENDBRANCH  25  26
ENDBRANCH  23  25
ENDBRANCH   1  17
TORSDOF 7
ENDMDL
MODEL ZINC79050379
REMARK  6 active torsions:
REMARK  status: ('A' for Active; 'I' for Inactive)
REMARK    1  A    between atoms: C2_2  and  C3_3 
REMARK    2  A    between atoms: C2_2  and  N1_9 
REMARK    3  A    between atoms: C3_3  and  C4_4 
REMARK       I    between atoms: N1_9  and  C9_11 
REMARK    4  A    between atoms: C9_11  and  C10_13 
REMARK    5  A    between atoms: C10_13  and  N2_14 
REMARK       I    between atoms: N2_14  and  C11_15 
REMARK    6  A    between atoms: C11_15  and  C12_17 
ROOT
ATOM      1  N1  <0> d           0.688  -0.476  -1.203  0.00  0.00    -0.350 N 
ATOM      2  C8  <0> d           2.083  -0.102  -1.446  0.00  0.00     0.153 C 
ATOM      3  C9  <0> d           0.035  -1.255  -2.088  0.00  0.00     0.237 C 
ATOM      4  O1  <0> d          -1.120  -1.565  -1.887  0.00  0.00    -0.272 OA
ENDROOT
BRANCH   3   5
ATOM      5  C10 <0> d           0.740  -1.741  -3.328  0.00  0.00     0.225 C 
BRANCH   5   6
ATOM      6  N2  <0> d          -0.177  -2.563  -4.122  0.00  0.00    -0.348 N 
ATOM      7  C11 <0> d           0.239  -3.109  -5.282  0.00  0.00     0.252 C 
ATOM      8  O2  <0> d           1.375  -2.920  -5.670  0.00  0.00    -0.268 OA
ATOM      9  H15 <0> d          -1.084  -2.715  -3.812  0.00  0.00     0.163 HD
BRANCH   7  10
ATOM     10  C12 <0> d          -0.687  -3.939  -6.082  0.00  0.00     0.035 A 
ATOM     11  C17 <0> d          -0.259  -4.505  -7.283  0.00  0.00     0.059 A 
ATOM     12  C16 <0> d          -1.128  -5.284  -8.024  0.00  0.00     0.117 A 
ATOM     13  C15 <0> d          -2.424  -5.492  -7.580  0.00  0.00     0.042 A 
ATOM     14  F1  <0> d          -0.715  -5.839  -9.184  0.00  0.00    -0.206 F 
ATOM     15  C14 <0> d          -2.854  -4.928  -6.393  0.00  0.00     0.004 A 
ATOM     16  C13 <0> d          -1.994  -4.154  -5.642  0.00  0.00     0.017 A 
ENDBRANCH   7  10
ENDBRANCH   5   6
ENDBRANCH   3   5
BRANCH   1  17
ATOM     17  C2  <0> d           0.002  -0.004   0.002  0.00  0.00     0.087 C 
ATOM     18  C1  <0> d          -0.019   1.526   0.010  0.00  0.00     0.033 C 
BRANCH  17  19
ATOM     19  C3  <0> d           0.742  -0.511   1.242  0.00  0.00     0.071 C 
BRANCH  19  20
ATOM     20  C4  <0> d           0.657  -2.014   1.298  0.00  0.00    -0.016 A 
ATOM     21  S1  <0> d          -0.577  -3.042   2.078  0.00  0.00    -0.106 SA
ATOM     22  C7  <0> d           0.110  -4.632   1.646  0.00  0.00     0.050 A 
ATOM     23  C6  <0> d           1.220  -4.279   0.953  0.00  0.00     0.008 A 
ATOM     24  C5  <0> d           1.500  -2.938   0.774  0.00  0.00     0.015 A 
ENDBRANCH  19  20
ENDBRANCH  17  19
ENDBRANCH   1  17
TORSDOF 6
ENDMDL
MODEL ZINC79310665
REMARK  7 active torsions:
REMARK  status: ('A' for Active; 'I' for Inactive)
REMARK    1  A    between atoms: C2_2  and  C4_4 
REMARK    2  A    between atoms: C4_4  and  C5_5 
REMARK    3  A    between atoms: C5_5  and  C6_6 
REMARK       I    between atoms: C6_6  and  N1_8 
REMARK    4  A    between atoms: N1_8  and  C7_9 
REMARK    5  A    between atoms: C7_9  and  C8_10 
REMARK       I    between atoms: C8_10  and  N2_12 
REMARK    6  A    between atoms: N2_12  and  C9_13 
REMARK    7  A    between atoms: C13_17  and  C15_19 
ROOT
ATOM      1  C8  <0> d           0.117  -0.498   7.370  0.00  0.00     0.239 C 
ATOM      2  O2  <0> d          -0.918   0.126   7.270  0.00  0.00    -0.271 OA
ATOM      3  N2  <0> d           0.581  -0.844   8.587  0.00  0.00    -0.326 N 
ATOM      4  H16 <0> d           1.372  -1.400   8.665  0.00  0.00     0.169 HD
ENDROOT
BRANCH   3   5
ATOM      5  C9  <0> d          -0.079  -0.401   9.739  0.00  0.00     0.035 A 
ATOM      6  C14 <0> d          -1.459  -0.276   9.742  0.00  0.00     0.045 A 
ATOM      7  C13 <0> d          -2.112   0.160  10.893  0.00  0.00     0.016 A 
ATOM      8  C12 <0> d          -1.373   0.479  12.030  0.00  0.00     0.015 A 
ATOM      9  C11 <0> d           0.003   0.358  12.017  0.00  0.00     0.003 A 
ATOM     10  C10 <0> d           0.651  -0.080  10.877  0.00  0.00     0.029 A 
BRANCH   7  11
ATOM     11  C15 <0> d          -3.590   0.289  10.906  0.00  0.00     0.180 A 
ATOM     12  N3  <0> d          -4.329   0.701  11.945  0.00  0.00    -0.221 NA
ATOM     13  C16 <0> d          -5.594   0.698  11.617  0.00  0.00     0.228 A 
ATOM     14  N4  <0> d          -5.699   0.279  10.343  0.00  0.00    -0.270 N 
ATOM     15  H1  <0> d          -6.517   0.176   9.831  0.00  0.00     0.190 HD
ATOM     16  N5  <0> d          -4.392   0.024   9.897  0.00  0.00    -0.153 NA
ENDBRANCH   7  11
ENDBRANCH   3   5
BRANCH   1  17
ATOM     17  C7  <0> d           0.885  -0.887   6.132  0.00  0.00     0.225 C 
BRANCH  17  18
ATOM     18  N1  <0> d           0.179  -0.399   4.946  0.00  0.00    -0.352 N 
ATOM     19  C6  <0> d           0.683  -0.631   3.718  0.00  0.00     0.217 C 
ATOM     20  O1  <0> d           1.722  -1.245   3.595  0.00  0.00    -0.274 OA
ATOM     21  H13 <0> d          -0.652   0.092   5.044  0.00  0.00     0.162 HD
BRANCH  19  22
ATOM     22  C5  <0> d          -0.043  -0.128   2.497  0.00  0.00     0.103 C 
BRANCH  22  23
ATOM     23  C4  <0> d           0.736  -0.523   1.241  0.00  0.00     0.013 C 
BRANCH  23  24
ATOM     24  C2  <0> d          -0.002  -0.013   0.001  0.00  0.00    -0.022 C 
ATOM     25  C1  <0> d          -0.011   1.517   0.008  0.00  0.00     0.009 C 
ATOM     26  C3  <0> d           0.709  -0.513  -1.257  0.00  0.00     0.009 C 
ENDBRANCH  23  24
ENDBRANCH  22  23
ENDBRANCH  19  22
ENDBRANCH  17  18
ENDBRANCH   1  17
TORSDOF 7
ENDMDL
MODEL ZINC79407415
REMARK  5 active torsions:
REMARK  status: ('A' for Active; 'I' for Inactive)
REMARK    1  A    between atoms: C2_2  and  C3_3 
REMARK    2  A    between atoms: C2_2  and  N3_17 
REMARK       I    between atoms: C3_3  and  N1_5 
REMARK    3  A    between atoms: N1_5  and  C4_6 
REMARK    4  A    between atoms: N1_5  and  C11_14 
REMARK    5  A    between atoms: C4_6  and  C5_7 
ROOT
ATOM      1  C3  <0> d           0.259  -0.856  -1.378  0.00  0.00     0.250 C 
ATOM      2  O1  <0> d           0.869  -1.900  -1.469  0.00  0.00    -0.271 OA
ATOM      3  N1  <0> d           0.076  -0.085  -2.469  0.00  0.00    -0.345 N 
ENDROOT
BRANCH   3   4
ATOM      4  C4  <0> d           0.950  -0.247  -3.634  0.00  0.00     0.132 C 
BRANCH   4   5
ATOM      5  C5  <0> d           0.348  -1.286  -4.582  0.00  0.00     0.029 C 
ATOM      6  C9  <0> d           1.194  -1.366  -5.855  0.00  0.00     0.240 C 
ATOM      7  N2  <0> d           0.620  -2.365  -6.765  0.00  0.00    -0.074 N 
ATOM      8  C8  <0> d           0.669  -3.694  -6.143  0.00  0.00     0.234 C 
ATOM      9  C10 <0> d           1.390  -2.384  -8.017  0.00  0.00     0.269 C 
ATOM     10  H26 <0> d          -0.339  -2.124  -6.966  0.00  0.00     0.279 HD
ATOM     11  C7  <0> d          -0.198  -3.702  -4.881  0.00  0.00     0.028 C 
ATOM     12  C6  <0> d           0.333  -2.655  -3.897  0.00  0.00     0.009 C 
ENDBRANCH   4   5
ENDBRANCH   3   4
BRANCH   3  13
ATOM     13  C11 <0> d          -0.995   0.913  -2.490  0.00  0.00     0.087 A 
ATOM     14  C13 <0> d          -2.337   0.523  -1.866  0.00  0.00     0.027 A 
ATOM     15  C12 <0> d          -1.422   1.520  -1.151  0.00  0.00     0.027 A 
ENDBRANCH   3  13
BRANCH   1  16
ATOM     16  C2  <0> d          -0.294  -0.419  -0.046  0.00  0.00     0.271 C 
ATOM     17  C1  <0> d           0.470   0.813   0.444  0.00  0.00     0.050 C 
BRANCH  16  18
ATOM     18  N3  <0> d          -0.142  -1.508   0.928  0.00  0.00    -0.067 N 
ATOM     19  H24 <0> d          -0.513  -1.215   1.820  0.00  0.00     0.275 HD
ATOM     20  H25 <0> d          -0.646  -2.320   0.605  0.00  0.00     0.275 HD
ATOM     21  H27 <0> d           0.835  -1.736   1.028  0.00  0.00     0.275 HD
ENDBRANCH  16  18
ENDBRANCH   1  16
TORSDOF 5
ENDMDL
MODEL ZINC79484132
REMARK  5 active torsions:
REMARK  status: ('A' for Active; 'I' for Inactive)
REMARK    1  A    between atoms: C3_4  and  N3_7 
REMARK       I    between atoms: N3_7  and  C5_8 
REMARK    2  A    between atoms: C5_8  and  C6_10 
REMARK    3  A    between atoms: N4_12  and  C15_21 
REMARK    4  A    between atoms: C15_21  and  C16_22 
REMARK    5  A    between atoms: C21_27  and  O3_28 
ROOT
ATOM      1  C6  <0> d           0.183  -5.646  -1.804  0.00  0.00     0.059 A 
ATOM      2  C7  <0> d           0.199  -6.894  -1.258  0.00  0.00     0.112 A 
ATOM      3  N4  <0> d           0.311  -8.012  -2.016  0.00  0.00    -0.319 N 
ATOM      4  C8  <0> d           0.415  -7.971  -3.358  0.00  0.00     0.258 A 
ATOM      5  O2  <0> d           0.513  -9.002  -3.996  0.00  0.00    -0.267 OA
ATOM      6  C9  <0> d           0.408  -6.674  -4.046  0.00  0.00     0.043 A 
ATOM      7  C10 <0> d           0.285  -5.502  -3.267  0.00  0.00    -0.003 A 
ATOM      8  C11 <0> d           0.270  -4.257  -3.888  0.00  0.00     0.013 A 
ATOM      9  C12 <0> d           0.369  -4.180  -5.261  0.00  0.00     0.001 A 
ATOM     10  C13 <0> d           0.483  -5.332  -6.028  0.00  0.00     0.001 A 
ATOM     11  C14 <0> d           0.513  -6.574  -5.432  0.00  0.00     0.018 A 
ENDROOT
BRANCH   1  12
ATOM     12  C5  <0> d           0.060  -4.458  -0.945  0.00  0.00     0.258 C 
ATOM     13  N3  <0> d           0.073  -4.592   0.396  0.00  0.00    -0.320 N 
ATOM     14  H6  <0> d           0.085  -5.476   0.795  0.00  0.00     0.169 HD
ATOM     15  O1  <0> d          -0.053  -3.355  -1.446  0.00  0.00    -0.267 OA
BRANCH  13  16
ATOM     16  C3  <0> d           0.068  -3.449   1.217  0.00  0.00     0.071 A 
ATOM     17  C2  <0> d           0.079  -3.440   2.575  0.00  0.00     0.142 A 
ATOM     18  N1  <0> d           0.070  -2.142   2.976  0.00  0.00    -0.283 N 
ATOM     19  C1  <0> d           0.076  -1.668   4.362  0.00  0.00     0.179 C 
ATOM     20  N2  <0> d           0.047  -1.337   1.830  0.00  0.00    -0.183 NA
ATOM     21  C4  <0> d           0.051  -2.117   0.779  0.00  0.00     0.169 A 
ENDBRANCH  13  16
ENDBRANCH   1  12
BRANCH   3  22
ATOM     22  C15 <0> d           0.320  -9.316  -1.349  0.00  0.00     0.173 C 
BRANCH  22  23
ATOM     23  C16 <0> d          -1.092  -9.830  -1.231  0.00  0.00    -0.006 A 
ATOM     24  C21 <0> d          -1.705 -10.431  -2.321  0.00  0.00     0.076 A 
ATOM     25  C20 <0> d          -3.003 -10.908  -2.207  0.00  0.00     0.037 A 
ATOM     26  C19 <0> d          -3.685 -10.774  -1.014  0.00  0.00     0.003 A 
ATOM     27  C18 <0> d          -3.074 -10.170   0.070  0.00  0.00     0.001 A 
ATOM     28  C17 <0> d          -1.779  -9.698  -0.039  0.00  0.00     0.011 A 
BRANCH  24  29
ATOM     29  O3  <0> d          -1.034 -10.556  -3.495  0.00  0.00    -0.355 OA
ATOM     30  C22 <0> d          -1.728 -11.185  -4.575  0.00  0.00     0.210 C 
ENDBRANCH  24  29
ENDBRANCH  22  23
ENDBRANCH   3  22
TORSDOF 5
ENDMDL
MODEL ZINC79899633
REMARK  2 active torsions:
REMARK  status: ('A' for Active; 'I' for Inactive)
REMARK    1  A    between atoms: C4_4  and  C8_9 
REMARK       I    between atoms: C8_9  and  N1_11 
REMARK    2  A    between atoms: C11_14  and  C14_17 
ROOT
ATOM      1  C8  <0> d           0.029  -2.816  -2.488  0.00  0.00     0.253 C 
ATOM      2  O1  <0> d          -0.092  -2.212  -3.535  0.00  0.00    -0.267 OA
ATOM      3  N1  <0> d           0.149  -4.159  -2.495  0.00  0.00    -0.348 N 
ATOM      4  C9  <0> d           0.162  -4.916  -1.236  0.00  0.00     0.126 C 
ATOM      5  C10 <0> d          -0.911  -6.007  -1.306  0.00  0.00     0.029 C 
ATOM      6  C11 <0> d          -0.683  -6.861  -2.555  0.00  0.00     0.044 C 
ATOM      7  C12 <0> d          -0.804  -5.985  -3.803  0.00  0.00     0.029 C 
ATOM      8  C13 <0> d           0.264  -4.894  -3.762  0.00  0.00     0.126 C 
ENDROOT
BRANCH   1   9
ATOM      9  C4  <0> d           0.044  -2.079  -1.206  0.00  0.00     0.035 A 
ATOM     10  C3  <0> d          -0.837  -1.017  -0.999  0.00  0.00     0.024 A 
ATOM     11  C2  <0> d          -0.819  -0.332   0.199  0.00  0.00    -0.058 A 
ATOM     12  C1  <0> d          -1.769   0.816   0.423  0.00  0.00     0.048 C 
ATOM     13  C7  <0> d           0.073  -0.693   1.193  0.00  0.00     0.049 A 
ATOM     14  C6  <0> d           0.947  -1.751   0.997  0.00  0.00     0.117 A 
ATOM     15  C5  <0> d           0.938  -2.444  -0.199  0.00  0.00     0.059 A 
ATOM     16  F1  <0> d           1.811  -2.102   1.974  0.00  0.00    -0.206 F 
ENDBRANCH   1   9
BRANCH   6  17
ATOM     17  C14 <0> d          -1.732  -7.974  -2.610  0.00  0.00     0.263 C 
ATOM     18  O3  <0> d          -1.521  -8.777  -3.779  0.00  0.00    -0.359 OA
ATOM     19  C16 <0> d          -1.283 -10.128  -3.334  0.00  0.00     0.197 C 
ATOM     20  C15 <0> d          -1.910 -10.146  -1.917  0.00  0.00     0.197 C 
ATOM     21  O2  <0> d          -1.611  -8.810  -1.446  0.00  0.00    -0.359 OA
ENDBRANCH   6  17
TORSDOF 2
ENDMDL
MODEL ZINC08268942
REMARK  5 active torsions:
REMARK  status: ('A' for Active; 'I' for Inactive)
REMARK    1  A    between atoms: C2_2  and  C3_4 
REMARK    2  A    between atoms: C7_8  and  N1_10 
REMARK       I    between atoms: N1_10  and  C9_11 
REMARK    3  A    between atoms: C9_11  and  C10_13 
REMARK    4  A    between atoms: C10_13  and  C11_14 
REMARK    5  A    between atoms: C11_14  and  C12_15 
ROOT
ATOM      1  N1  <0> d          -2.428   1.032   0.019  0.00  0.00    -0.327 N 
ATOM      2  C9  <0> d          -2.409  -0.311  -0.090  0.00  0.00     0.222 C 
ATOM      3  O2  <0> d          -1.351  -0.904  -0.098  0.00  0.00    -0.273 OA
ATOM      4  H8  <0> d          -3.273   1.500   0.103  0.00  0.00     0.169 HD
ENDROOT
BRANCH   1   5
ATOM      5  C7  <0> d          -1.228   1.752   0.012  0.00  0.00     0.035 A 
ATOM      6  C6  <0> d          -1.111   2.916   0.762  0.00  0.00     0.029 A 
ATOM      7  C5  <0> d           0.074   3.629   0.764  0.00  0.00     0.003 A 
ATOM      8  C4  <0> d           1.148   3.193   0.016  0.00  0.00     0.015 A 
ATOM      9  C3  <0> d           1.040   2.026  -0.748  0.00  0.00     0.011 A 
ATOM     10  C8  <0> d          -0.158   1.307  -0.749  0.00  0.00     0.044 A 
BRANCH   9  11
ATOM     11  C2  <0> d           2.184   1.557  -1.546  0.00  0.00     0.155 C 
ATOM     12  C1  <0> d           3.475   2.335  -1.543  0.00  0.00     0.096 C 
ATOM     13  O1  <0> d           2.088   0.545  -2.207  0.00  0.00    -0.293 OA
ENDBRANCH   9  11
ENDBRANCH   1   5
BRANCH   2  14
ATOM     14  C10 <0> d          -3.702  -1.077  -0.202  0.00  0.00     0.108 C 
BRANCH  14  15
ATOM     15  C11 <0> d          -3.401  -2.573  -0.312  0.00  0.00     0.051 C 
BRANCH  15  16
ATOM     16  C12 <0> d          -4.695  -3.338  -0.424  0.00  0.00    -0.019 A 
ATOM     17  C17 <0> d          -5.297  -3.503  -1.659  0.00  0.00     0.122 A 
ATOM     18  C16 <0> d          -6.486  -4.207  -1.760  0.00  0.00     0.043 A 
ATOM     19  F1  <0> d          -4.726  -2.978  -2.765  0.00  0.00    -0.206 F 
ATOM     20  C15 <0> d          -7.069  -4.743  -0.628  0.00  0.00     0.003 A 
ATOM     21  C14 <0> d          -6.466  -4.578   0.605  0.00  0.00     0.001 A 
ATOM     22  C13 <0> d          -5.277  -3.881   0.706  0.00  0.00     0.010 A 
ENDBRANCH  15  16
ENDBRANCH  14  15
ENDBRANCH   2  14
TORSDOF 5
ENDMDL
MODEL ZINC02447371
REMARK  7 active torsions:
REMARK  status: ('A' for Active; 'I' for Inactive)
REMARK    1  A    between atoms: C10_12  and  C11_15 
REMARK    2  A    between atoms: C13_17  and  S1_23 
REMARK    3  A    between atoms: C16_20  and  O1_21 
REMARK    4  A    between atoms: S1_23  and  N5_26 
REMARK    5  A    between atoms: N5_26  and  C18_27 
REMARK    6  A    between atoms: C18_27  and  C21_30 
REMARK    7  A    between atoms: C21_30  and  O4_31 
ROOT
ATOM      1  C11 <0> d           4.119  -2.820   1.972  0.00  0.00     0.048 A 
ATOM      2  C12 <0> d           4.120  -1.429   1.866  0.00  0.00     0.043 A 
ATOM      3  C13 <0> d           4.965  -0.808   0.969  0.00  0.00     0.080 A 
ATOM      4  C14 <0> d           5.812  -1.560   0.173  0.00  0.00     0.028 A 
ATOM      5  C15 <0> d           5.819  -2.939   0.269  0.00  0.00     0.039 A 
ATOM      6  C16 <0> d           4.982  -3.577   1.169  0.00  0.00     0.082 A 
ENDROOT
BRANCH   1   7
ATOM      7  C10 <0> d           3.217  -3.492   2.930  0.00  0.00     0.188 A 
ATOM      8  N2  <0> d           3.119  -4.790   3.134  0.00  0.00    -0.127 NA
ATOM      9  N1  <0> d           2.236  -5.030   4.038  0.00  0.00    -0.127 NA
ATOM     10  C9  <0> d           1.718  -3.897   4.465  0.00  0.00     0.186 A 
ATOM     11  C8  <0> d           0.697  -3.559   5.460  0.00  0.00     0.026 A 
ATOM     12  N3  <0> d           2.327  -2.881   3.771  0.00  0.00    -0.192 N 
ATOM     13  C3  <0> d           0.386  -2.193   5.659  0.00  0.00     0.004 A 
ATOM     14  C7  <0> d           0.034  -4.534   6.204  0.00  0.00     0.016 A 
ATOM     15  C2  <0> d           1.095  -1.188   4.867  0.00  0.00     0.062 A 
ATOM     16  C4  <0> d          -0.583  -1.838   6.599  0.00  0.00     0.014 A 
ATOM     17  C1  <0> d           0.782   0.274   5.060  0.00  0.00     0.073 C 
ATOM     18  N4  <0> d           1.988  -1.547   3.994  0.00  0.00    -0.168 NA
ATOM     19  C5  <0> d          -1.220  -2.811   7.317  0.00  0.00     0.001 A 
ATOM     20  C6  <0> d          -0.918  -4.153   7.124  0.00  0.00     0.001 A 
ENDBRANCH   1   7
BRANCH   6  21
ATOM     21  O1  <0> d           4.993  -4.932   1.268  0.00  0.00    -0.355 OA
ATOM     22  C17 <0> d           5.899  -5.637   0.418  0.00  0.00     0.210 C 
ENDBRANCH   6  21
BRANCH   3  23
ATOM     23  S1  <0> d           4.965   0.949   0.836  0.00  0.00     0.259 S 
ATOM     24  O2  <0> d           5.771   1.271  -0.289  0.00  0.00    -0.201 OA
ATOM     25  O3  <0> d           3.611   1.365   0.948  0.00  0.00    -0.201 OA
BRANCH  23  26
ATOM     26  N5  <0> d           5.753   1.540   2.167  0.00  0.00    -0.304 N 
ATOM     27  H14 <0> d           5.265   2.051   2.832  0.00  0.00     0.173 HD
BRANCH  26  28
ATOM     28  C18 <0> d           7.186   1.292   2.341  0.00  0.00     0.054 C 
ATOM     29  C19 <0> d           7.469  -0.202   2.171  0.00  0.00     0.041 C 
ATOM     30  C20 <0> d           7.971   2.083   1.292  0.00  0.00     0.041 C 
BRANCH  28  31
ATOM     31  C21 <0> d           7.615   1.736   3.741  0.00  0.00     0.194 C 
BRANCH  31  32
ATOM     32  O4  <0> d           9.013   1.494   3.910  0.00  0.00    -0.398 OA
ATOM     33  H23 <0> d           9.355   1.752   4.777  0.00  0.00     0.209 HD
ENDBRANCH  31  32
ENDBRANCH  28  31
ENDBRANCH  26  28
ENDBRANCH  23  26
ENDBRANCH   3  23
TORSDOF 7
ENDMDL
MODEL ZINC02879347
REMARK  7 active torsions:
REMARK  status: ('A' for Active; 'I' for Inactive)
REMARK    1  A    between atoms: C2_2  and  S1_5 
REMARK    2  A    between atoms: S1_5  and  C5_6 
REMARK    3  A    between atoms: C5_6  and  C6_7 
REMARK    4  A    between atoms: C6_7  and  N1_8 
REMARK    5  A    between atoms: N1_8  and  S2_9 
REMARK    6  A    between atoms: S2_9  and  C7_12 
REMARK    7  A    between atoms: C10_15  and  S3_18 
ROOT
ATOM      1  S2  <0> d           5.920  -0.310  -3.408  0.00  0.00     0.258 S 
ATOM      2  O1  <0> d           7.077   0.451  -3.089  0.00  0.00    -0.201 OA
ATOM      3  O2  <0> d           5.887  -1.727  -3.301  0.00  0.00    -0.201 OA
ENDROOT
BRANCH   1   4
ATOM      4  N1  <0> d           4.696   0.265  -2.453  0.00  0.00    -0.315 N 
ATOM      5  H14 <0> d           4.869   0.979  -1.820  0.00  0.00     0.172 HD
BRANCH   4   6
ATOM      6  C6  <0> d           3.351  -0.305  -2.564  0.00  0.00     0.142 C 
BRANCH   6   7
ATOM      7  C5  <0> d           2.517   0.116  -1.353  0.00  0.00     0.095 C 
BRANCH   7   8
ATOM      8  S1  <0> d           0.851  -0.589  -1.490  0.00  0.00    -0.159 SA
BRANCH   8   9
ATOM      9  C2  <0> d           0.002  -0.004   0.002  0.00  0.00    -0.003 C 
ATOM     10  C1  <0> d          -0.019   1.526   0.010  0.00  0.00     0.026 C 
ATOM     11  C3  <0> d           0.742  -0.511   1.242  0.00  0.00     0.026 C 
ATOM     12  C4  <0> d          -1.433  -0.534   0.013  0.00  0.00     0.026 C 
ENDBRANCH   8   9
ENDBRANCH   7   8
ENDBRANCH   6   7
ENDBRANCH   4   6
ENDBRANCH   1   4
BRANCH   1  13
ATOM     13  C7  <0> d           5.506   0.078  -5.076  0.00  0.00     0.079 A 
ATOM     14  C12 <0> d           5.916   1.279  -5.627  0.00  0.00     0.026 A 
ATOM     15  C11 <0> d           5.599   1.584  -6.936  0.00  0.00     0.020 A 
ATOM     16  C10 <0> d           4.856   0.688  -7.696  0.00  0.00    -0.000 A 
ATOM     17  C9  <0> d           4.441  -0.515  -7.138  0.00  0.00     0.020 A 
ATOM     18  C8  <0> d           4.767  -0.816  -5.830  0.00  0.00     0.026 A 
BRANCH  16  19
ATOM     19  S3  <0> d           4.444   1.076  -9.364  0.00  0.00    -0.134 SA
ATOM     20  C13 <0> d           5.188   2.709  -9.632  0.00  0.00     0.095 C 
ENDBRANCH  16  19
ENDBRANCH   1  13
TORSDOF 7
ENDMDL
MODEL ZINC03362812
REMARK  6 active torsions:
REMARK  status: ('A' for Active; 'I' for Inactive)
REMARK    1  A    between atoms: O1_2  and  C2_3 
REMARK    2  A    between atoms: C6_7  and  C9_11 
REMARK    3  A    between atoms: C7_8  and  O2_9 
REMARK    4  A    between atoms: C9_11  and  C10_12 
REMARK    5  A    between atoms: C12_16  and  C13_18 
REMARK    6  A    between atoms: C16_21  and  C19_24 
ROOT
ATOM      1  C10 <0> d           1.155   2.087  -0.238  0.00  0.00     0.136 A 
ATOM      2  C11 <0> d           0.018   1.151  -0.309  0.00  0.00     0.318 A 
ATOM      3  O3  <0> d           0.048  -0.059  -0.182  0.00  0.00    -0.257 OA
ATOM      4  O4  <0> d          -1.063   1.923  -0.552  0.00  0.00    -0.254 OA
ATOM      5  C12 <0> d          -0.668   3.209  -0.619  0.00  0.00     0.184 A 
ATOM      6  N1  <0> d           0.619   3.325  -0.442  0.00  0.00    -0.218 NA
ENDROOT
BRANCH   1   7
ATOM      7  C9  <0> d           2.480   1.776  -0.012  0.00  0.00     0.052 C 
BRANCH   7   8
ATOM      8  C6  <0> d           3.505   2.815  -0.127  0.00  0.00     0.003 A 
ATOM      9  C5  <0> d           3.141   4.170  -0.117  0.00  0.00     0.014 A 
ATOM     10  C4  <0> d           4.109   5.142  -0.225  0.00  0.00     0.004 A 
ATOM     11  C3  <0> d           5.445   4.792  -0.343  0.00  0.00     0.040 A 
ATOM     12  C2  <0> d           5.822   3.458  -0.355  0.00  0.00     0.102 A 
ATOM     13  C7  <0> d           4.860   2.462  -0.241  0.00  0.00     0.111 A 
BRANCH  12  14
ATOM     14  O1  <0> d           7.136   3.125  -0.472  0.00  0.00    -0.353 OA
ATOM     15  C1  <0> d           8.071   4.200  -0.579  0.00  0.00     0.210 C 
ENDBRANCH  12  14
BRANCH  13  16
ATOM     16  O2  <0> d           5.227   1.155  -0.247  0.00  0.00    -0.352 OA
ATOM     17  C8  <0> d           5.288   0.503  -1.517  0.00  0.00     0.210 C 
ENDBRANCH  13  16
ENDBRANCH   7   8
ENDBRANCH   1   7
BRANCH   5  18
ATOM     18  C13 <0> d          -1.578   4.346  -0.867  0.00  0.00     0.017 A 
ATOM     19  C18 <0> d          -2.945   4.124  -1.044  0.00  0.00     0.017 A 
ATOM     20  C17 <0> d          -3.789   5.190  -1.275  0.00  0.00     0.017 A 
ATOM     21  C16 <0> d          -3.284   6.477  -1.331  0.00  0.00     0.048 A 
ATOM     22  C15 <0> d          -1.931   6.704  -1.156  0.00  0.00     0.017 A 
ATOM     23  C14 <0> d          -1.076   5.648  -0.919  0.00  0.00     0.017 A 
BRANCH  21  24
ATOM     24  C19 <0> d          -4.213   7.637  -1.583  0.00  0.00     0.417 C 
ATOM     25  F1  <0> d          -4.691   8.126  -0.363  0.00  0.00    -0.166 F 
ATOM     26  F2  <0> d          -3.521   8.651  -2.254  0.00  0.00    -0.166 F 
ATOM     27  F3  <0> d          -5.290   7.210  -2.368  0.00  0.00    -0.166 F 
ENDBRANCH  21  24
ENDBRANCH   5  18
TORSDOF 6
ENDMDL
MODEL ZINC81624449
REMARK  5 active torsions:
REMARK  status: ('A' for Active; 'I' for Inactive)
REMARK    1  A    between atoms: C2_2  and  N1_3 
REMARK    2  A    between atoms: C8_9  and  N2_12 
REMARK       I    between atoms: N2_12  and  C11_13 
REMARK       I    between atoms: C11_13  and  N3_15 
REMARK    3  A    between atoms: C14_18  and  C16_20 
REMARK    4  A    between atoms: C16_20  and  O2_21 
REMARK    5  A    between atoms: O2_21  and  C17_22 
ROOT
ATOM      1  N2  <0> d          -2.966  -0.891   4.448  0.00  0.00    -0.309 N 
ATOM      2  C11 <0> d          -3.366  -1.309   5.665  0.00  0.00     0.322 C 
ATOM      3  O1  <0> d          -2.546  -1.696   6.475  0.00  0.00    -0.247 OA
ATOM      4  N3  <0> d          -4.675  -1.299   5.984  0.00  0.00    -0.334 N 
ATOM      5  C12 <0> d          -5.769  -0.865   5.103  0.00  0.00     0.128 C 
ATOM      6  C13 <0> d          -7.088  -1.054   5.881  0.00  0.00     0.028 C 
ATOM      7  C14 <0> d          -6.711  -2.115   6.950  0.00  0.00     0.029 C 
ATOM      8  C15 <0> d          -5.249  -1.728   7.273  0.00  0.00     0.134 C 
ATOM      9  H14 <0> d          -3.610  -0.510   3.830  0.00  0.00     0.170 HD
ENDROOT
BRANCH   1  10
ATOM     10  C8  <0> d          -1.622  -1.005   4.076  0.00  0.00     0.038 A 
ATOM     11  C7  <0> d          -1.051  -0.054   3.246  0.00  0.00     0.059 A 
ATOM     12  C6  <0> d           0.289  -0.163   2.872  0.00  0.00     0.038 A 
ATOM     13  N1  <0> d           1.048   0.676   2.054  0.00  0.00    -0.380 N 
ATOM     14  C5  <0> d           1.035  -1.235   3.338  0.00  0.00    -0.030 A 
ATOM     15  C3  <0> d           2.418   0.168   1.945  0.00  0.00     0.128 A 
ATOM     16  C4  <0> d           2.442  -1.113   2.795  0.00  0.00     0.060 A 
ATOM     17  C10 <0> d           0.462  -2.185   4.162  0.00  0.00     0.012 A 
ATOM     18  C9  <0> d          -0.862  -2.072   4.538  0.00  0.00     0.030 A 
BRANCH  13  19
ATOM     19  C2  <0> d           0.550   1.891   1.405  0.00  0.00     0.118 C 
ATOM     20  C1  <0> d           0.762   3.089   2.332  0.00  0.00     0.026 C 
ENDBRANCH  13  19
ENDBRANCH   1  10
BRANCH   7  21
ATOM     21  C16 <0> d          -7.602  -1.986   8.187  0.00  0.00     0.173 C 
BRANCH  21  22
ATOM     22  O2  <0> d          -7.307  -3.047   9.098  0.00  0.00    -0.391 OA
BRANCH  22  23
ATOM     23  C17 <0> d          -8.089  -3.020  10.294  0.00  0.00     0.163 C 
ATOM     24  C18 <0> d          -7.691  -4.194  11.191  0.00  0.00     0.033 C 
ENDBRANCH  22  23
ENDBRANCH  21  22
ENDBRANCH   7  21
TORSDOF 5
ENDMDL
MODEL ZINC81633795
REMARK  5 active torsions:
REMARK  status: ('A' for Active; 'I' for Inactive)
REMARK    1  A    between atoms: C4_5  and  N2_7 
REMARK    2  A    between atoms: C7_9  and  N4_12 
REMARK       I    between atoms: N4_12  and  C9_13 
REMARK       I    between atoms: C9_13  and  N5_15 
REMARK    3  A    between atoms: N5_15  and  C10_16 
REMARK    4  A    between atoms: C15_21  and  C16_22 
REMARK    5  A    between atoms: C16_22  and  O2_23 
ROOT
ATOM      1  N4  <0> d           2.819  -5.261  -0.048  0.00  0.00    -0.306 N 
ATOM      2  C9  <0> d           2.286  -6.499  -0.052  0.00  0.00     0.321 C 
ATOM      3  O1  <0> d           1.079  -6.642  -0.046  0.00  0.00    -0.247 OA
ATOM      4  N5  <0> d           3.092  -7.579  -0.063  0.00  0.00    -0.338 N 
ATOM      5  H9  <0> d           3.782  -5.147  -0.053  0.00  0.00     0.171 HD
ATOM      6  H10 <0> d           4.056  -7.465  -0.067  0.00  0.00     0.164 HD
ENDROOT
BRANCH   1   7
ATOM      7  C7  <0> d           1.977  -4.133  -0.037  0.00  0.00     0.073 A 
ATOM      8  C6  <0> d           2.378  -2.836  -0.032  0.00  0.00     0.151 A 
ATOM      9  N2  <0> d           1.258  -2.061  -0.022  0.00  0.00    -0.225 N 
ATOM     10  N3  <0> d           0.146  -2.912  -0.015  0.00  0.00    -0.176 NA
ATOM     11  C8  <0> d           0.573  -4.149  -0.030  0.00  0.00     0.170 A 
BRANCH   9  12
ATOM     12  C4  <0> d           1.225  -0.663  -0.014  0.00  0.00     0.149 A 
ATOM     13  N1  <0> d           2.359   0.019  -0.021  0.00  0.00    -0.241 NA
ATOM     14  C3  <0> d           2.373   1.338  -0.013  0.00  0.00     0.119 A 
ATOM     15  C2  <0> d           1.194   2.058   0.002  0.00  0.00     0.019 A 
ATOM     16  C1  <0> d          -0.017   1.380   0.010  0.00  0.00     0.005 A 
ATOM     17  C5  <0> d           0.002  -0.004   0.002  0.00  0.00     0.052 A 
ENDBRANCH   9  12
ENDBRANCH   1   7
BRANCH   4  18
ATOM     18  C10 <0> d           2.514  -8.925  -0.067  0.00  0.00     0.092 C 
ATOM     19  C15 <0> d           3.510  -9.906  -0.688  0.00  0.00     0.032 C 
ATOM     20  C14 <0> d           2.906 -11.312  -0.693  0.00  0.00     0.009 C 
ATOM     21  C13 <0> d           2.597 -11.739   0.744  0.00  0.00     0.001 C 
ATOM     22  C12 <0> d           1.600 -10.758   1.365  0.00  0.00     0.002 C 
ATOM     23  C11 <0> d           2.205  -9.352   1.369  0.00  0.00     0.026 C 
BRANCH  19  24
ATOM     24  C16 <0> d           3.819  -9.479  -2.124  0.00  0.00     0.170 C 
BRANCH  24  25
ATOM     25  O2  <0> d           4.835 -10.326  -2.665  0.00  0.00    -0.400 OA
ATOM     26  H21 <0> d           5.082 -10.113  -3.575  0.00  0.00     0.209 HD
ENDBRANCH  24  25
ENDBRANCH  19  24
ENDBRANCH   4  18
TORSDOF 5
ENDMDL
MODEL ZINC08428643
REMARK  3 active torsions:
REMARK  status: ('A' for Active; 'I' for Inactive)
REMARK    1  A    between atoms: C2_2  and  C3_3 
REMARK    2  A    between atoms: C2_2  and  S1_10 
REMARK       I    between atoms: C3_3  and  N1_5 
REMARK    3  A    between atoms: S1_10  and  C8_11 
ROOT
ATOM      1  C8  <0> d           3.501   1.715  -0.380  0.00  0.00     0.187 C 
ATOM      2  N2  <0> d           2.381   1.119  -0.006  0.00  0.00    -0.223 NA
ATOM      3  C9  <0> d           1.188   1.792   0.000  0.00  0.00     0.068 A 
ATOM      4  C10 <0> d          -0.013   1.076   0.008  0.00  0.00     0.032 A 
ATOM      5  C11 <0> d          -1.215   1.749   0.017  0.00  0.00     0.002 A 
ATOM      6  C12 <0> d          -1.244   3.133   0.032  0.00  0.00     0.001 A 
ATOM      7  C13 <0> d          -0.061   3.853   0.025  0.00  0.00     0.012 A 
ATOM      8  C14 <0> d           1.144   3.192   0.007  0.00  0.00    -0.004 A 
ATOM      9  C15 <0> d           2.450   3.944  -0.013  0.00  0.00     0.152 C 
ATOM     10  N3  <0> d           3.404   3.048  -0.715  0.00  0.00    -0.237 N 
ATOM     11  N4  <0> d           4.034   3.769  -1.712  0.00  0.00    -0.186 NA
ATOM     12  C16 <0> d           3.530   4.921  -1.918  0.00  0.00     0.114 C 
ATOM     13  C17 <0> d           2.390   5.160  -0.949  0.00  0.00     0.081 C 
ENDROOT
BRANCH   1  14
ATOM     14  S1  <0> d           5.035   0.850  -0.448  0.00  0.00    -0.076 SA
BRANCH  14  15
ATOM     15  C2  <0> d           4.494  -0.791   0.091  0.00  0.00     0.143 C 
ATOM     16  C1  <0> d           4.011  -0.718   1.541  0.00  0.00     0.031 C 
BRANCH  15  17
ATOM     17  C3  <0> d           5.646  -1.757  -0.007  0.00  0.00     0.233 C 
ATOM     18  O1  <0> d           6.787  -1.348   0.048  0.00  0.00    -0.272 OA
ATOM     19  N1  <0> d           5.410  -3.075  -0.155  0.00  0.00    -0.351 N 
ATOM     20  C7  <0> d           6.438  -4.126  -0.263  0.00  0.00     0.126 C 
ATOM     21  C4  <0> d           4.083  -3.705  -0.230  0.00  0.00     0.126 C 
ATOM     22  C6  <0> d           5.731  -5.423   0.204  0.00  0.00     0.021 C 
ATOM     23  C5  <0> d           4.305  -5.225  -0.374  0.00  0.00     0.021 C 
ENDBRANCH  15  17
ENDBRANCH  14  15
ENDBRANCH   1  14
TORSDOF 3
ENDMDL
MODEL ZINC08492620
REMARK  3 active torsions:
REMARK  status: ('A' for Active; 'I' for Inactive)
REMARK    1  A    between atoms: O1_2  and  C2_3 
REMARK    2  A    between atoms: C5_6  and  C8_9 
REMARK    3  A    between atoms: C10_11  and  N4_25 
ROOT
ATOM      1  C8  <0> d           2.505  -2.503  -4.381  0.00  0.00     0.097 A 
ATOM      2  C9  <0> d           1.464  -3.307  -5.127  0.00  0.00     0.046 A 
ATOM      3  C10 <0> d           0.322  -2.714  -5.658  0.00  0.00     0.135 A 
ATOM      4  N1  <0> d          -0.563  -3.471  -6.307  0.00  0.00    -0.203 NA
ATOM      5  C11 <0> d          -0.371  -4.777  -6.452  0.00  0.00     0.201 A 
ATOM      6  N2  <0> d           0.716  -5.396  -5.956  0.00  0.00    -0.316 N 
ATOM      7  C12 <0> d           1.669  -4.670  -5.275  0.00  0.00     0.141 A 
ATOM      8  N3  <0> d           2.753  -5.271  -4.775  0.00  0.00    -0.234 NA
ATOM      9  C13 <0> d           3.718  -4.678  -4.115  0.00  0.00     0.046 A 
ATOM     10  C14 <0> d           3.691  -3.298  -3.864  0.00  0.00     0.012 A 
ATOM     11  C15 <0> d           4.673  -2.676  -3.192  0.00  0.00     0.094 C 
ATOM     12  C16 <0> d           5.861  -3.435  -2.664  0.00  0.00     0.069 C 
ATOM     13  C17 <0> d           6.129  -4.644  -3.565  0.00  0.00     0.013 C 
ATOM     14  C18 <0> d           4.878  -5.507  -3.614  0.00  0.00     0.060 C 
ATOM     15  O2  <0> d           4.593  -1.347  -2.986  0.00  0.00    -0.196 OA
ATOM     16  S1  <0> d          -1.541  -5.701  -7.295  0.00  0.00    -0.038 SA
ATOM     17  H17 <0> d           0.829  -6.352  -6.078  0.00  0.00     0.170 HD
ENDROOT
BRANCH   1  18
ATOM     18  C5  <0> d           1.835  -1.835  -3.209  0.00  0.00    -0.045 A 
ATOM     19  C4  <0> d           1.786  -0.455  -3.136  0.00  0.00     0.011 A 
ATOM     20  C3  <0> d           1.173   0.161  -2.062  0.00  0.00     0.037 A 
ATOM     21  C2  <0> d           0.606  -0.607  -1.056  0.00  0.00     0.068 A 
ATOM     22  C7  <0> d           0.661  -1.992  -1.128  0.00  0.00     0.037 A 
ATOM     23  C6  <0> d           1.270  -2.602  -2.207  0.00  0.00     0.011 A 
BRANCH  21  24
ATOM     24  O1  <0> d           0.002  -0.004   0.002  0.00  0.00    -0.356 OA
ATOM     25  C1  <0> d          -0.017   1.425   0.010  0.00  0.00     0.210 C 
ENDBRANCH  21  24
ENDBRANCH   1  18
BRANCH   3  26
ATOM     26  N4  <0> d           0.109  -1.358  -5.516  0.00  0.00    -0.383 N 
ATOM     27  H15 <0> d           0.756  -0.813  -5.043  0.00  0.00     0.157 HD
ATOM     28  H16 <0> d          -0.689  -0.951  -5.888  0.00  0.00     0.157 HD
ENDBRANCH   3  26
TORSDOF 3
ENDMDL
MODEL ZINC70760100
REMARK  3 active torsions:
REMARK  status: ('A' for Active; 'I' for Inactive)
REMARK    1  A    between atoms: C5_5  and  N1_7 
REMARK    2  A    between atoms: N1_7  and  C7_8 
REMARK    3  A    between atoms: C7_8  and  C8_9 
ROOT
ATOM      1  N1  <0> d          -0.095  -2.280   2.859  0.00  0.00    -0.067 N 
ATOM      2  H12 <0> d           0.775  -2.165   3.357  0.00  0.00     0.278 HD
ATOM      3  H18 <0> d          -0.787  -1.654   3.241  0.00  0.00     0.278 HD
ENDROOT
BRANCH   1   4
ATOM      4  C5  <0> d           0.111  -1.974   1.437  0.00  0.00     0.186 C 
ATOM      5  C4  <0> d          -1.237  -1.988   0.694  0.00  0.00     0.033 C 
ATOM      6  C3  <0> d          -1.434  -0.573   0.112  0.00  0.00     0.006 C 
ATOM      7  C2  <0> d           0.002  -0.004   0.002  0.00  0.00    -0.017 C 
ATOM      8  C1  <0> d          -0.019   1.526   0.010  0.00  0.00     0.010 C 
ATOM      9  C6  <0> d           0.690  -0.551   1.278  0.00  0.00     0.037 C 
ENDBRANCH   1   4
BRANCH   1  10
ATOM     10  C7  <0> d          -0.559  -3.667   2.998  0.00  0.00     0.278 C 
BRANCH  10  11
ATOM     11  C8  <0> d          -0.771  -3.982   4.457  0.00  0.00     0.008 A 
ATOM     12  S1  <0> d           0.387  -4.648   5.642  0.00  0.00    -0.105 SA
ATOM     13  C11 <0> d          -0.697  -4.681   7.061  0.00  0.00     0.050 A 
ATOM     14  C10 <0> d          -1.852  -4.197   6.542  0.00  0.00     0.008 A 
ATOM     15  C9  <0> d          -1.890  -3.838   5.208  0.00  0.00     0.017 A 
ENDBRANCH  10  11
ENDBRANCH   1  10
TORSDOF 3
ENDMDL
MODEL ZINC01057354
REMARK  6 active torsions:
REMARK  status: ('A' for Active; 'I' for Inactive)
REMARK    1  A    between atoms: C4_4  and  O2_10 
REMARK    2  A    between atoms: C5_5  and  C7_7 
REMARK       I    between atoms: C7_7  and  N1_9 
REMARK    3  A    between atoms: O2_10  and  C8_11 
REMARK    4  A    between atoms: C8_11  and  C9_12 
REMARK    5  A    between atoms: N2_14  and  S1_15 
REMARK    6  A    between atoms: S1_15  and  C10_18 
ROOT
ATOM      1  C8  <0> d           4.790   0.201  -0.045  0.00  0.00     0.265 C 
ENDROOT
BRANCH   1   2
ATOM      2  O2  <0> d           3.611  -0.606  -0.037  0.00  0.00    -0.342 OA
BRANCH   2   3
ATOM      3  C4  <0> d           2.420   0.043  -0.021  0.00  0.00     0.085 A 
ATOM      4  C3  <0> d           2.383   1.429  -0.013  0.00  0.00     0.038 A 
ATOM      5  C2  <0> d           1.170   2.089   0.002  0.00  0.00     0.003 A 
ATOM      6  C1  <0> d          -0.017   1.374   0.010  0.00  0.00     0.001 A 
ATOM      7  C6  <0> d           0.002  -0.004   0.002  0.00  0.00     0.020 A 
ATOM      8  C5  <0> d           1.222  -0.684  -0.013  0.00  0.00     0.065 A 
BRANCH   8   9
ATOM      9  C7  <0> d           1.250  -2.159  -0.022  0.00  0.00     0.252 C 
ATOM     10  O1  <0> d           2.314  -2.748  -0.036  0.00  0.00    -0.268 OA
ATOM     11  N1  <0> d           0.095  -2.855  -0.014  0.00  0.00    -0.366 N 
ATOM     12  H5  <0> d          -0.754  -2.385  -0.003  0.00  0.00     0.159 HD
ATOM     13  H6  <0> d           0.113  -3.824  -0.020  0.00  0.00     0.159 HD
ENDBRANCH   8   9
ENDBRANCH   2   3
ENDBRANCH   1   2
BRANCH   1  14
ATOM     14  C9  <0> d           6.008  -0.687  -0.062  0.00  0.00     0.213 C 
ATOM     15  O3  <0> d           7.241  -0.141  -0.072  0.00  0.00    -0.172 OA
ATOM     16  N2  <0> d           5.870  -1.970  -0.068  0.00  0.00    -0.134 NA
BRANCH  16  17
ATOM     17  S1  <0> d           7.207  -2.946  -0.087  0.00  0.00     0.285 S 
ATOM     18  O4  <0> d           7.847  -2.734  -1.338  0.00  0.00    -0.198 OA
ATOM     19  O5  <0> d           7.873  -2.748   1.153  0.00  0.00    -0.198 OA
BRANCH  17  20
ATOM     20  C10 <0> d           6.636  -4.613  -0.090  0.00  0.00     0.081 A 
ATOM     21  C15 <0> d           6.399  -5.260  -1.288  0.00  0.00     0.027 A 
ATOM     22  C14 <0> d           5.956  -6.570  -1.291  0.00  0.00     0.025 A 
ATOM     23  C13 <0> d           5.739  -7.229  -0.095  0.00  0.00     0.034 A 
ATOM     24  C12 <0> d           5.970  -6.579   1.105  0.00  0.00     0.025 A 
ATOM     25 Cl1  <0> d           5.176  -8.871  -0.098  0.00  0.00    -0.084 Cl
ATOM     26  C11 <0> d           6.419  -5.271   1.106  0.00  0.00     0.027 A 
ENDBRANCH  17  20
ENDBRANCH  16  17
ENDBRANCH   1  14
TORSDOF 6
ENDMDL
MODEL ZINC82136892
REMARK  5 active torsions:
REMARK  status: ('A' for Active; 'I' for Inactive)
REMARK    1  A    between atoms: N1_8  and  C8_10 
REMARK    2  A    between atoms: C8_10  and  C9_11 
REMARK       I    between atoms: C9_11  and  N3_13 
REMARK    3  A    between atoms: C12_16  and  O2_19 
REMARK    4  A    between atoms: O2_19  and  C15_20 
REMARK    5  A    between atoms: C15_20  and  C16_21 
ROOT
ATOM      1  C9  <0> d           4.707  -3.249  -1.226  0.00  0.00     0.239 C 
ATOM      2  O1  <0> d           4.711  -2.296  -1.977  0.00  0.00    -0.271 OA
ATOM      3  N3  <0> d           5.549  -4.280  -1.442  0.00  0.00    -0.350 N 
ATOM      4  C10 <0> d           5.552  -5.444  -0.546  0.00  0.00     0.128 C 
ATOM      5  C11 <0> d           6.981  -5.679  -0.047  0.00  0.00     0.052 C 
ATOM      6  C12 <0> d           7.921  -5.808  -1.248  0.00  0.00     0.124 C 
ATOM      7  C13 <0> d           7.899  -4.509  -2.058  0.00  0.00     0.052 C 
ATOM      8  C14 <0> d           6.476  -4.263  -2.582  0.00  0.00     0.128 C 
ENDROOT
BRANCH   1   9
ATOM      9  C8  <0> d           3.762  -3.281  -0.053  0.00  0.00     0.253 C 
BRANCH   9  10
ATOM     10  N1  <0> d           2.961  -2.055  -0.039  0.00  0.00    -0.271 N 
ATOM     11  C7  <0> d           1.622  -2.011  -0.025  0.00  0.00     0.126 A 
ATOM     12  C5  <0> d           1.239  -0.683  -0.013  0.00  0.00     0.011 A 
ATOM     13  C4  <0> d           2.480   0.107  -0.021  0.00  0.00     0.088 A 
ATOM     14  C6  <0> d           0.002  -0.004   0.002  0.00  0.00     0.015 A 
ATOM     15  C3  <0> d           2.384   1.515  -0.013  0.00  0.00     0.034 A 
ATOM     16  N2  <0> d           3.481  -0.755  -0.036  0.00  0.00    -0.172 NA
ATOM     17  C2  <0> d           1.162   2.103   0.002  0.00  0.00     0.002 A 
ATOM     18  C1  <0> d          -0.016   1.352   0.009  0.00  0.00     0.001 A 
ENDBRANCH   9  10
ENDBRANCH   1   9
BRANCH   6  19
ATOM     19  O2  <0> d           9.250  -6.059  -0.788  0.00  0.00    -0.381 OA
BRANCH  19  20
ATOM     20  C15 <0> d          10.041  -6.835  -1.690  0.00  0.00     0.208 C 
BRANCH  20  21
ATOM     21  C16 <0> d          11.416  -7.038  -1.107  0.00  0.00    -0.017 A 
ATOM     22  C20 <0> d          11.681  -8.131  -0.305  0.00  0.00     0.125 A 
ATOM     23  N4  <0> d          12.883  -8.319   0.205  0.00  0.00    -0.273 NA
ATOM     24  C19 <0> d          13.870  -7.473  -0.018  0.00  0.00     0.116 A 
ATOM     25  C18 <0> d          13.678  -6.354  -0.806  0.00  0.00     0.020 A 
ATOM     26  C17 <0> d          12.429  -6.127  -1.363  0.00  0.00     0.012 A 
ENDBRANCH  20  21
ENDBRANCH  19  20
ENDBRANCH   6  19
TORSDOF 5
ENDMDL
MODEL ZINC02307109
REMARK  7 active torsions:
REMARK  status: ('A' for Active; 'I' for Inactive)
REMARK    1  A    between atoms: C5_5  and  S1_9 
REMARK    2  A    between atoms: S1_9  and  N1_12 
REMARK    3  A    between atoms: N1_12  and  N2_13 
REMARK    4  A    between atoms: C8_14  and  C9_15 
REMARK    5  A    between atoms: C12_18  and  O4_24 
REMARK    6  A    between atoms: C13_19  and  C15_21 
REMARK    7  A    between atoms: C15_21  and  O3_22 
ROOT
ATOM      1  N1  <0> d           4.347  -1.061  -1.629  0.00  0.00    -0.200 N 
ATOM      2  H6  <0> d           4.464  -1.960  -1.975  0.00  0.00     0.202 HD
ENDROOT
BRANCH   1   3
ATOM      3  S1  <0> d           3.936  -0.832  -0.042  0.00  0.00     0.281 S 
ATOM      4  O1  <0> d           4.903   0.054   0.505  0.00  0.00    -0.199 OA
ATOM      5  O2  <0> d           3.688  -2.120   0.504  0.00  0.00    -0.199 OA
BRANCH   3   6
ATOM      6  C5  <0> d           2.398   0.028  -0.021  0.00  0.00     0.124 A 
ATOM      7  C4  <0> d           2.378   1.411  -0.013  0.00  0.00     0.059 A 
ATOM      8  C3  <0> d           1.171   2.086   0.002  0.00  0.00     0.032 A 
ATOM      9 Cl2  <0> d           3.869   2.300  -0.022  0.00  0.00    -0.083 Cl
ATOM     10  C2  <0> d          -0.017   1.378   0.010  0.00  0.00    -0.059 A 
ATOM     11  C1  <0> d          -1.332   2.113   0.020  0.00  0.00     0.048 C 
ATOM     12  C7  <0> d           0.002  -0.004   0.002  0.00  0.00     0.032 A 
ATOM     13  C6  <0> d           1.209  -0.680  -0.014  0.00  0.00     0.059 A 
ATOM     14 Cl1  <0> d           1.233  -2.416  -0.024  0.00  0.00    -0.083 Cl
ENDBRANCH   3   6
ENDBRANCH   1   3
BRANCH   1  15
ATOM     15  N2  <0> d           4.527   0.043  -2.473  0.00  0.00    -0.176 NA
ATOM     16  C8  <0> d           4.849  -0.137  -3.717  0.00  0.00     0.150 C 
BRANCH  16  17
ATOM     17  C9  <0> d           5.038   1.025  -4.605  0.00  0.00    -0.016 A 
ATOM     18  C14 <0> d           5.385   0.834  -5.944  0.00  0.00     0.025 A 
ATOM     19  C13 <0> d           5.560   1.924  -6.771  0.00  0.00    -0.000 A 
ATOM     20  C12 <0> d           5.392   3.209  -6.274  0.00  0.00     0.076 A 
ATOM     21  C11 <0> d           5.046   3.404  -4.943  0.00  0.00     0.038 A 
ATOM     22  C10 <0> d           4.864   2.321  -4.110  0.00  0.00     0.015 A 
BRANCH  19  23
ATOM     23  C15 <0> d           5.934   1.719  -8.216  0.00  0.00     0.208 C 
BRANCH  23  24
ATOM     24  O3  <0> d           6.048   0.320  -8.485  0.00  0.00    -0.391 OA
ATOM     25  C16 <0> d           6.401   0.015  -9.836  0.00  0.00     0.201 C 
ENDBRANCH  23  24
ENDBRANCH  19  23
BRANCH  20  26
ATOM     26  O4  <0> d           5.565   4.280  -7.093  0.00  0.00    -0.355 OA
ATOM     27  C17 <0> d           5.376   5.574  -6.517  0.00  0.00     0.210 C 
ENDBRANCH  20  26
ENDBRANCH  16  17
ENDBRANCH   1  15
TORSDOF 7
ENDMDL
MODEL ZINC82344291
REMARK  5 active torsions:
REMARK  status: ('A' for Active; 'I' for Inactive)
REMARK    1  A    between atoms: C2_2  and  C3_3 
REMARK    2  A    between atoms: C3_3  and  C4_4 
REMARK    3  A    between atoms: C3_3  and  N2_17 
REMARK    4  A    between atoms: C4_4  and  C5_5 
REMARK    5  A    between atoms: C4_4  and  O1_16 
ROOT
ATOM      1  C5  <0> d           1.384  -2.537   2.519  0.00  0.00     0.043 A 
ATOM      2  C6  <0> d           0.853  -2.633   3.748  0.00  0.00     0.042 A 
ATOM      3  C7  <0> d           1.899  -3.161   4.627  0.00  0.00    -0.001 A 
ATOM      4  C8  <0> d           1.958  -3.475   5.986  0.00  0.00    -0.050 A 
ATOM      5  C9  <0> d           3.117  -3.964   6.520  0.00  0.00     0.007 A 
ATOM      6  C10 <0> d           4.237  -4.151   5.722  0.00  0.00     0.003 A 
ATOM      7  C11 <0> d           4.201  -3.847   4.379  0.00  0.00     0.030 A 
ATOM      8  C12 <0> d           3.032  -3.348   3.814  0.00  0.00     0.045 A 
ATOM      9  N1  <0> d           2.684  -2.964   2.538  0.00  0.00    -0.352 N 
ATOM     10  C13 <0> d           3.573  -3.005   1.375  0.00  0.00     0.156 C 
ATOM     11  C14 <0> d           0.748  -3.276   6.862  0.00  0.00     0.049 C 
ENDROOT
BRANCH   1  12
ATOM     12  C4  <0> d           0.655  -2.037   1.299  0.00  0.00     0.198 C 
BRANCH  12  13
ATOM     13  C3  <0> d           0.742  -0.511   1.242  0.00  0.00     0.217 C 
BRANCH  13  14
ATOM     14  C2  <0> d           0.002  -0.004   0.002  0.00  0.00     0.031 C 
ATOM     15  C1  <0> d          -0.019   1.526   0.010  0.00  0.00     0.007 C 
ENDBRANCH  13  14
BRANCH  13  16
ATOM     16  N2  <0> d           2.151  -0.103   1.171  0.00  0.00    -0.072 N 
ATOM     17  H19 <0> d           2.209   0.904   1.134  0.00  0.00     0.274 HD
ATOM     18  H20 <0> d           2.639  -0.437   1.989  0.00  0.00     0.274 HD
ATOM     19  H21 <0> d           2.574  -0.495   0.344  0.00  0.00     0.274 HD
ENDBRANCH  13  16
ENDBRANCH  12  13
BRANCH  12  20
ATOM     20  O1  <0> d          -0.716  -2.434   1.367  0.00  0.00    -0.387 OA
ATOM     21  H18 <0> d          -1.186  -2.093   2.139  0.00  0.00     0.210 HD
ENDBRANCH  12  20
ENDBRANCH   1  12
TORSDOF 5
ENDMDL
MODEL ZINC82362100
REMARK  3 active torsions:
REMARK  status: ('A' for Active; 'I' for Inactive)
REMARK    1  A    between atoms: O1_2  and  C2_3 
REMARK    2  A    between atoms: C8_9  and  C12_14 
REMARK    3  A    between atoms: C12_14  and  N1_15 
ROOT
ATOM      1  C2  <0> d          -1.233  -0.626   0.038  0.00  0.00     0.068 A 
ATOM      2  C3  <0> d          -2.411   0.107   0.060  0.00  0.00     0.038 A 
ATOM      3  C4  <0> d          -3.629  -0.547   0.062  0.00  0.00     0.022 A 
ATOM      4  C5  <0> d          -3.654  -1.934   0.046  0.00  0.00     0.007 A 
ATOM      5  C6  <0> d          -2.491  -2.667   0.032  0.00  0.00    -0.033 A 
ATOM      6  C7  <0> d          -1.269  -2.013   0.018  0.00  0.00     0.045 A 
ATOM      7  C8  <0> d          -2.510  -4.182   0.036  0.00  0.00     0.045 C 
ATOM      8  C9  <0> d          -2.863  -4.668   1.444  0.00  0.00     0.012 C 
ATOM      9  C10 <0> d          -4.354  -4.871   1.602  0.00  0.00     0.011 C 
ATOM     10  C11 <0> d          -5.197  -3.615   1.665  0.00  0.00     0.079 C 
ATOM     11  S1  <0> d          -5.205  -2.795   0.039  0.00  0.00    -0.129 SA
ENDROOT
BRANCH   7  12
ATOM     12  C12 <0> d          -3.556  -4.684  -0.961  0.00  0.00     0.239 C 
BRANCH  12  13
ATOM     13  N1  <0> d          -3.423  -6.139  -1.118  0.00  0.00    -0.079 N 
ATOM     14  H16 <0> d          -2.500  -6.357  -1.462  0.00  0.00     0.274 HD
ATOM     15  H17 <0> d          -3.565  -6.588  -0.226  0.00  0.00     0.274 HD
ATOM     16  H18 <0> d          -4.114  -6.470  -1.776  0.00  0.00     0.274 HD
ENDBRANCH  12  13
ENDBRANCH   7  12
BRANCH   1  17
ATOM     17  O1  <0> d          -0.036   0.019   0.030  0.00  0.00    -0.356 OA
ATOM     18  C1  <0> d          -0.068   1.447   0.052  0.00  0.00     0.210 C 
ENDBRANCH   1  17
TORSDOF 3
ENDMDL
MODEL ZINC82369679
REMARK  0 active torsions:
REMARK  status: ('A' for Active; 'I' for Inactive)
ROOT
ATOM      1  C1  <0> d          -0.018   1.503   0.010  0.00  0.00     0.048 C 
ATOM      2  C2  <0> d           0.002  -0.004   0.002  0.00  0.00    -0.060 A 
ATOM      3  C3  <0> d           0.006  -0.690  -1.199  0.00  0.00     0.009 A 
ATOM      4  C4  <0> d           0.036  -2.067  -1.201  0.00  0.00     0.032 A 
ATOM      5  C5  <0> d           0.056  -2.782  -0.000  0.00  0.00     0.055 A 
ATOM      6  C6  <0> d           0.033  -2.099   1.202  0.00  0.00     0.061 A 
ATOM      7  C7  <0> d           0.023  -0.700   1.191  0.00  0.00     0.038 A 
ATOM      8  N1  <0> d          -0.005  -2.717   2.434  0.00  0.00    -0.325 N 
ATOM      9  C8  <0> d           0.188  -3.917   2.872  0.00  0.00     0.228 C 
ATOM     10  O1  <0> d           0.379  -3.994   4.067  0.00  0.00    -0.273 OA
ATOM     11  C9  <0> d           0.216  -5.234   2.150  0.00  0.00     0.101 C 
ATOM     12  C10 <0> d           1.325  -6.060   2.873  0.00  0.00     0.016 C 
ATOM     13  C11 <0> d           2.658  -5.639   2.222  0.00  0.00     0.003 C 
ATOM     14  C12 <0> d           2.299  -4.668   1.068  0.00  0.00     0.026 C 
ATOM     15  C13 <0> d           0.828  -5.043   0.742  0.00  0.00     0.095 C 
ATOM     16  N2  <0> d           0.117  -4.170  -0.103  0.00  0.00    -0.383 N 
ATOM     17  H9  <0> d          -0.233  -2.099   3.147  0.00  0.00     0.169 HD
ATOM     18  H16 <0> d          -0.386  -4.579  -0.824  0.00  0.00     0.160 HD
ENDROOT
TORSDOF 0
ENDMDL
MODEL ZINC82379280
REMARK  4 active torsions:
REMARK  status: ('A' for Active; 'I' for Inactive)
REMARK    1  A    between atoms: C2_2  and  C3_3 
REMARK    2  A    between atoms: C3_3  and  C4_4 
REMARK    3  A    between atoms: C3_3  and  C5_6 
REMARK    4  A    between atoms: C4_4  and  N1_5 
ROOT
ATOM      1  C5  <0> d           0.053  -0.007   2.380  0.00  0.00     0.005 C 
ATOM      2  C6  <0> d           0.918  -0.314   3.599  0.00  0.00     0.007 C 
ATOM      3  C7  <0> d           0.138  -0.075   4.888  0.00  0.00     0.015 C 
ATOM      4  C8  <0> d          -0.084   1.426   5.093  0.00  0.00     0.140 C 
ATOM      5  S1  <0> d          -1.105   2.061   3.731  0.00  0.00     0.144 S 
ATOM      6  O1  <0> d          -2.358   1.391   3.755  0.00  0.00    -0.228 OA
ATOM      7  O2  <0> d          -1.078   3.481   3.769  0.00  0.00    -0.228 OA
ATOM      8  C9  <0> d          -0.177   1.502   2.272  0.00  0.00     0.145 C 
ENDROOT
BRANCH   1   9
ATOM      9  C3  <0> d           0.760  -0.505   1.117  0.00  0.00     0.016 C 
BRANCH   9  10
ATOM     10  C2  <0> d           0.862  -2.031   1.157  0.00  0.00     0.002 C 
ATOM     11  C1  <0> d          -0.542  -2.637   1.093  0.00  0.00     0.005 C 
ENDBRANCH   9  10
BRANCH   9  12
ATOM     12  C4  <0> d           2.165   0.098   1.048  0.00  0.00     0.234 C 
BRANCH  12  13
ATOM     13  N1  <0> d           2.799  -0.283  -0.221  0.00  0.00    -0.079 N 
ATOM     14  H10 <0> d           2.861  -1.288  -0.278  0.00  0.00     0.274 HD
ATOM     15  H11 <0> d           2.246   0.063  -0.991  0.00  0.00     0.274 HD
ATOM     16  H20 <0> d           3.726   0.114  -0.267  0.00  0.00     0.274 HD
ENDBRANCH  12  13
ENDBRANCH   9  12
ENDBRANCH   1   9
TORSDOF 4
ENDMDL
MODEL ZINC04090084
REMARK  6 active torsions:
REMARK  status: ('A' for Active; 'I' for Inactive)
REMARK    1  A    between atoms: C4_4  and  S1_7 
REMARK    2  A    between atoms: S1_7  and  C7_8 
REMARK    3  A    between atoms: C7_8  and  C8_9 
REMARK    4  A    between atoms: C8_9  and  N4_20 
REMARK    5  A    between atoms: N1_10  and  N2_11 
REMARK       I    between atoms: N2_11  and  C9_12 
REMARK    6  A    between atoms: C9_12  and  C10_14 
ROOT
ATOM      1  C8  <0> d           3.480   7.350   0.006  0.00  0.00     0.127 C 
ATOM      2  N1  <0> d           3.531   6.056  -0.001  0.00  0.00    -0.158 NA
ENDROOT
BRANCH   1   3
ATOM      3  C7  <0> d           4.755   8.154  -0.002  0.00  0.00     0.159 C 
BRANCH   3   4
ATOM      4  S1  <0> d           6.179   7.030  -0.022  0.00  0.00    -0.122 SA
BRANCH   4   5
ATOM      5  C4  <0> d           7.572   8.108  -0.030  0.00  0.00     0.001 A 
ATOM      6  C3  <0> d           8.859   7.584  -0.045  0.00  0.00     0.018 A 
ATOM      7  C2  <0> d           9.949   8.432  -0.051  0.00  0.00     0.001 A 
ATOM      8  C1  <0> d           9.761   9.802  -0.042  0.00  0.00     0.000 A 
ATOM      9  C6  <0> d           8.482  10.328  -0.028  0.00  0.00     0.001 A 
ATOM     10  C5  <0> d           7.388   9.486  -0.027  0.00  0.00     0.018 A 
ENDBRANCH   4   5
ENDBRANCH   3   4
ENDBRANCH   1   3
BRANCH   1  11
ATOM     11  N4  <0> d           2.257   7.993   0.021  0.00  0.00    -0.385 N 
ATOM     12  H13 <0> d           1.437   7.475   0.026  0.00  0.00     0.157 HD
ATOM     13  H14 <0> d           2.219   8.962   0.026  0.00  0.00     0.157 HD
ENDBRANCH   1  11
BRANCH   2  14
ATOM     14  N2  <0> d           2.346   5.308   0.007  0.00  0.00    -0.241 N 
ATOM     15  C9  <0> d           2.400   3.962  -0.001  0.00  0.00     0.271 C 
ATOM     16  O1  <0> d           3.476   3.396  -0.014  0.00  0.00    -0.266 OA
ATOM     17  H8  <0> d           1.488   5.760   0.017  0.00  0.00     0.192 HD
BRANCH  15  18
ATOM     18  C10 <0> d           1.147   3.171   0.008  0.00  0.00     0.036 A 
ATOM     19  C14 <0> d          -0.101   3.802   0.022  0.00  0.00     0.036 A 
ATOM     20  C13 <0> d          -1.243   3.026   0.029  0.00  0.00     0.117 A 
ATOM     21  N3  <0> d          -1.168   1.710   0.017  0.00  0.00    -0.273 NA
ATOM     22  C12 <0> d          -0.013   1.076   0.008  0.00  0.00     0.117 A 
ATOM     23  C11 <0> d           1.180   1.773   0.000  0.00  0.00     0.036 A 
ENDBRANCH  15  18
ENDBRANCH   2  14
TORSDOF 6
ENDMDL
MODEL ZINC82398192
REMARK  3 active torsions:
REMARK  status: ('A' for Active; 'I' for Inactive)
REMARK    1  A    between atoms: C2_2  and  C5_5 
REMARK    2  A    between atoms: C5_5  and  C6_6 
REMARK    3  A    between atoms: C9_9  and  C11_12 
ROOT
ATOM      1  C6  <0> d           2.052  -0.080  -1.392  0.00  0.00     0.035 A 
ATOM      2  C7  <0> d           3.015  -1.020  -1.714  0.00  0.00     0.028 A 
ATOM      3  C8  <0> d           4.341  -0.633  -1.785  0.00  0.00     0.018 A 
ATOM      4  C9  <0> d           4.657   0.709  -1.525  0.00  0.00     0.019 A 
ATOM      5  C10 <0> d           3.623   1.595  -1.206  0.00  0.00     0.131 A 
ATOM      6  N1  <0> d           2.376   1.177  -1.157  0.00  0.00    -0.265 NA
ENDROOT
BRANCH   1   7
ATOM      7  C5  <0> d           0.606  -0.499  -1.314  0.00  0.00     0.067 C 
BRANCH   7   8
ATOM      8  C2  <0> d           0.057  -0.179   0.078  0.00  0.00    -0.046 C 
ATOM      9  C1  <0> d           0.036   1.338   0.282  0.00  0.00     0.015 C 
ATOM     10  C3  <0> d           0.950  -0.824   1.139  0.00  0.00     0.015 C 
ATOM     11  C4  <0> d          -1.365  -0.730   0.204  0.00  0.00     0.015 C 
ENDBRANCH   7   8
ENDBRANCH   1   7
BRANCH   4  12
ATOM     12  C11 <0> d           6.051   1.175  -1.586  0.00  0.00     0.271 C 
ATOM     13  O1  <0> d           6.312   2.338  -1.359  0.00  0.00    -0.301 OA
ENDBRANCH   4  12
TORSDOF 3
ENDMDL
MODEL ZINC82418721
REMARK  4 active torsions:
REMARK  status: ('A' for Active; 'I' for Inactive)
REMARK    1  A    between atoms: C2_2  and  N1_3 
REMARK    2  A    between atoms: N1_3  and  C3_4 
REMARK    3  A    between atoms: C4_7  and  C5_9 
REMARK    4  A    between atoms: C7_12  and  N5_14 
ROOT
ATOM      1  C5  <0> d           1.676  -5.687   2.682  0.00  0.00     0.063 A 
ATOM      2  C6  <0> d           2.348  -5.992   3.839  0.00  0.00     0.141 A 
ATOM      3  N4  <0> d           2.525  -7.270   4.100  0.00  0.00    -0.235 NA
ATOM      4  C7  <0> d           2.075  -8.204   3.286  0.00  0.00     0.169 A 
ATOM      5  S2  <0> d           1.339  -7.324   2.054  0.00  0.00    -0.048 SA
ENDROOT
BRANCH   1   6
ATOM      6  C4  <0> d           1.324  -4.375   2.119  0.00  0.00     0.142 A 
ATOM      7  N3  <0> d           0.668  -4.072   1.003  0.00  0.00    -0.139 NA
ATOM      8  N2  <0> d           0.448  -2.877   0.664  0.00  0.00    -0.123 NA
ATOM      9  C3  <0> d           0.858  -1.852   1.400  0.00  0.00     0.190 A 
ATOM     10  S1  <0> d           1.662  -2.729   2.738  0.00  0.00    -0.028 SA
BRANCH   9  11
ATOM     11  N1  <0> d           0.711  -0.489   1.189  0.00  0.00    -0.368 N 
ATOM     12  H6  <0> d           1.077   0.142   1.827  0.00  0.00     0.161 HD
BRANCH  11  13
ATOM     13  C2  <0> d           0.002  -0.004   0.002  0.00  0.00     0.117 C 
ATOM     14  C1  <0> d          -0.019   1.526   0.010  0.00  0.00     0.026 C 
ENDBRANCH  11  13
ENDBRANCH   9  11
ENDBRANCH   1   6
BRANCH   4  15
ATOM     15  N5  <0> d           2.178  -9.578   3.416  0.00  0.00    -0.360 N 
ATOM     16  C12 <0> d           2.857 -10.171   4.576  0.00  0.00     0.125 C 
ATOM     17  C11 <0> d           1.905 -11.179   5.237  0.00  0.00     0.024 C 
ATOM     18  C10 <0> d           1.442 -12.196   4.191  0.00  0.00    -0.015 C 
ATOM     19  C9  <0> d           0.681 -11.475   3.077  0.00  0.00     0.024 C 
ATOM     20  C13 <0> d           0.523 -13.225   4.853  0.00  0.00     0.010 C 
ATOM     21  C8  <0> d           1.615 -10.470   2.394  0.00  0.00     0.125 C 
ENDBRANCH   4  15
TORSDOF 4
ENDMDL
MODEL ZINC82446425
REMARK  6 active torsions:
REMARK  status: ('A' for Active; 'I' for Inactive)
REMARK    1  A    between atoms: O1_2  and  C2_3 
REMARK    2  A    between atoms: C2_3  and  C3_4 
REMARK    3  A    between atoms: C4_5  and  C13_17 
REMARK    4  A    between atoms: C5_7  and  C6_9 
REMARK    5  A    between atoms: C9_12  and  O2_15 
REMARK    6  A    between atoms: C13_17  and  C14_18 
ROOT
ATOM      1  C3  <0> d          -1.156  -2.103   0.002  0.00  0.00     0.073 A 
ATOM      2  C4  <0> d          -1.099  -2.774  -1.179  0.00  0.00     0.021 A 
ATOM      3  S1  <0> d          -0.940  -4.457  -0.595  0.00  0.00    -0.071 SA
ATOM      4  C5  <0> d          -0.967  -4.085   1.154  0.00  0.00     0.108 A 
ATOM      5  N1  <0> d          -1.084  -2.764   1.134  0.00  0.00    -0.242 NA
ENDROOT
BRANCH   4   6
ATOM      6  C6  <0> d          -0.876  -5.001   2.310  0.00  0.00    -0.000 A 
ATOM      7  C11 <0> d          -0.917  -4.494   3.610  0.00  0.00     0.017 A 
ATOM      8  C10 <0> d          -0.839  -5.353   4.685  0.00  0.00     0.037 A 
ATOM      9  C9  <0> d          -0.707  -6.720   4.477  0.00  0.00     0.068 A 
ATOM     10  C8  <0> d          -0.660  -7.227   3.185  0.00  0.00     0.037 A 
ATOM     11  C7  <0> d          -0.745  -6.376   2.104  0.00  0.00     0.017 A 
BRANCH   9  12
ATOM     12  O2  <0> d          -0.624  -7.562   5.539  0.00  0.00    -0.356 OA
ATOM     13  C12 <0> d          -0.679  -6.973   6.840  0.00  0.00     0.210 C 
ENDBRANCH   9  12
ENDBRANCH   4   6
BRANCH   2  14
ATOM     14  C13 <0> d          -1.155  -2.246  -2.589  0.00  0.00     0.161 C 
BRANCH  14  15
ATOM     15  C14 <0> d           0.241  -1.939  -3.066  0.00  0.00     0.177 C 
ATOM     16  O3  <0> d           1.193  -2.131  -2.329  0.00  0.00    -0.648 OA
ATOM     17  O4  <0> d           0.419  -1.498  -4.189  0.00  0.00    -0.648 OA
ENDBRANCH  14  15
ENDBRANCH   2  14
BRANCH   1  18
ATOM     18  C2  <0> d          -1.295  -0.603   0.011  0.00  0.00     0.227 C 
BRANCH  18  19
ATOM     19  O1  <0> d           0.002  -0.004   0.002  0.00  0.00    -0.390 OA
ATOM     20  C1  <0> d          -0.017   1.425   0.010  0.00  0.00     0.201 C 
ENDBRANCH  18  19
ENDBRANCH   1  18
TORSDOF 6
ENDMDL
MODEL ZINC82468730
REMARK  5 active torsions:
REMARK  status: ('A' for Active; 'I' for Inactive)
REMARK    1  A    between atoms: C2_2  and  N1_4 
REMARK    2  A    between atoms: N1_4  and  C4_5 
REMARK    3  A    between atoms: C4_5  and  C5_6 
REMARK    4  A    between atoms: C7_8  and  C15_18 
REMARK    5  A    between atoms: C13_15  and  O1_16 
ROOT
ATOM      1  C5  <0> d          -2.773  -2.497  -0.106  0.00  0.00    -0.018 A 
ATOM      2  C6  <0> d          -3.318  -3.026   1.030  0.00  0.00     0.037 A 
ATOM      3  C7  <0> d          -4.627  -3.502   1.017  0.00  0.00     0.043 A 
ATOM      4  N2  <0> d          -5.365  -3.459  -0.066  0.00  0.00    -0.249 NA
ATOM      5  C8  <0> d          -4.893  -2.955  -1.209  0.00  0.00     0.101 A 
ATOM      6  C9  <0> d          -3.571  -2.448  -1.264  0.00  0.00     0.003 A 
ATOM      7  C10 <0> d          -3.081  -1.915  -2.467  0.00  0.00     0.014 A 
ATOM      8  C11 <0> d          -3.882  -1.884  -3.568  0.00  0.00     0.004 A 
ATOM      9  C12 <0> d          -5.184  -2.375  -3.520  0.00  0.00     0.039 A 
ATOM     10  C13 <0> d          -5.691  -2.912  -2.371  0.00  0.00     0.097 A 
ENDROOT
BRANCH   1  11
ATOM     11  C4  <0> d          -1.359  -1.976  -0.116  0.00  0.00     0.272 C 
BRANCH  11  12
ATOM     12  N1  <0> d          -1.376  -0.512   0.012  0.00  0.00    -0.068 N 
ATOM     13  H8  <0> d          -1.823  -0.256   0.880  0.00  0.00     0.277 HD
ATOM     14  H27 <0> d          -1.888  -0.113  -0.760  0.00  0.00     0.277 HD
BRANCH  12  15
ATOM     15  C2  <0> d           0.002  -0.004   0.002  0.00  0.00     0.178 C 
ATOM     16  C1  <0> d          -0.019   1.526   0.010  0.00  0.00     0.039 C 
ATOM     17  C3  <0> d           0.742  -0.511   1.242  0.00  0.00     0.039 C 
ENDBRANCH  12  15
ENDBRANCH  11  12
ENDBRANCH   1  11
BRANCH   3  18
ATOM     18  C15 <0> d          -5.210  -4.081   2.280  0.00  0.00    -0.007 C 
ATOM     19  C16 <0> d          -5.549  -2.948   3.252  0.00  0.00     0.021 C 
ATOM     20  C17 <0> d          -6.482  -4.861   1.943  0.00  0.00     0.021 C 
ATOM     21  C18 <0> d          -4.191  -5.021   2.928  0.00  0.00     0.021 C 
ENDBRANCH   3  18
BRANCH  10  22
ATOM     22  O1  <0> d          -6.964  -3.387  -2.343  0.00  0.00    -0.354 OA
ATOM     23  C14 <0> d          -7.712  -3.310  -3.558  0.00  0.00     0.210 C 
ENDBRANCH  10  22
TORSDOF 5
ENDMDL
MODEL ZINC34583048
REMARK  3 active torsions:
REMARK  status: ('A' for Active; 'I' for Inactive)
REMARK    1  A    between atoms: S1_2  and  C2_3 
REMARK    2  A    between atoms: C5_6  and  C8_9 
REMARK    3  A    between atoms: C8_9  and  C9_11 
ROOT
ATOM      1  C2  <0> d           0.877  -0.427   1.472  0.00  0.00    -0.000 A 
ATOM      2  C3  <0> d           1.349   0.579   2.313  0.00  0.00     0.019 A 
ATOM      3  C4  <0> d           2.027   0.255   3.454  0.00  0.00     0.017 A 
ATOM      4  C5  <0> d           2.247  -1.089   3.777  0.00  0.00     0.014 A 
ATOM      5  C6  <0> d           1.771  -2.096   2.930  0.00  0.00     0.017 A 
ATOM      6  C7  <0> d           1.089  -1.766   1.794  0.00  0.00     0.019 A 
ENDROOT
BRANCH   4   7
ATOM      7  C8  <0> d           2.979  -1.442   5.007  0.00  0.00     0.181 C 
ATOM      8  O1  <0> d           3.393  -0.566   5.742  0.00  0.00    -0.288 OA
BRANCH   7   9
ATOM      9  C9  <0> d           3.209  -2.855   5.346  0.00  0.00     0.045 C 
ATOM     10  C10 <0> d           3.870  -3.174   6.457  0.00  0.00     0.015 C 
ENDBRANCH   7   9
ENDBRANCH   4   7
BRANCH   1  11
ATOM     11  S1  <0> d           0.002  -0.004   0.002  0.00  0.00    -0.134 SA
ATOM     12  C1  <0> d          -0.022   1.810   0.012  0.00  0.00     0.095 C 
ENDBRANCH   1  11
TORSDOF 3
ENDMDL
MODEL ZINC82568061
REMARK  3 active torsions:
REMARK  status: ('A' for Active; 'I' for Inactive)
REMARK    1  A    between atoms: C2_2  and  C5_5 
REMARK    2  A    between atoms: C9_10  and  C15_17 
REMARK    3  A    between atoms: N2_13  and  C12_14 
ROOT
ATOM      1  C5  <0> d           0.690  -0.884  -1.074  0.00  0.00     0.115 A 
ATOM      2  N1  <0> d           0.050  -1.595  -1.958  0.00  0.00    -0.232 NA
ATOM      3  C6  <0> d           0.932  -2.168  -2.811  0.00  0.00     0.085 A 
ATOM      4  C7  <0> d           0.790  -3.010  -3.921  0.00  0.00     0.035 A 
ATOM      5  C8  <0> d           1.890  -3.438  -4.599  0.00  0.00     0.021 A 
ATOM      6  C9  <0> d           3.174  -3.040  -4.197  0.00  0.00     0.043 A 
ATOM      7  C10 <0> d           3.333  -2.201  -3.093  0.00  0.00     0.050 A 
ATOM      8  C11 <0> d           2.217  -1.765  -2.401  0.00  0.00     0.066 A 
ATOM      9  N2  <0> d           2.028  -0.949  -1.302  0.00  0.00    -0.328 N 
ENDROOT
BRANCH   1  10
ATOM     10  C2  <0> d           0.042  -0.100   0.037  0.00  0.00     0.010 C 
ATOM     11  C1  <0> d           0.496   1.360  -0.036  0.00  0.00     0.023 C 
ATOM     12  C3  <0> d           0.450  -0.694   1.387  0.00  0.00     0.023 C 
ATOM     13  C4  <0> d          -1.480  -0.168  -0.111  0.00  0.00     0.023 C 
ENDBRANCH   1  10
BRANCH   9  14
ATOM     14  C12 <0> d           3.075  -0.280  -0.525  0.00  0.00     0.092 A 
ATOM     15  C14 <0> d           4.457  -0.935  -0.491  0.00  0.00     0.028 A 
ATOM     16  C13 <0> d           3.561  -0.973   0.749  0.00  0.00     0.028 A 
ENDBRANCH   9  14
BRANCH   6  17
ATOM     17  C15 <0> d           4.355  -3.510  -4.939  0.00  0.00     0.209 C 
ATOM     18  O1  <0> d           4.217  -4.246  -5.907  0.00  0.00    -0.644 OA
ATOM     19  O2  <0> d           5.475  -3.164  -4.589  0.00  0.00    -0.644 OA
ENDBRANCH   6  17
TORSDOF 3
ENDMDL
MODEL ZINC82572927
REMARK  5 active torsions:
REMARK  status: ('A' for Active; 'I' for Inactive)
REMARK    1  A    between atoms: C2_2  and  C4_4 
REMARK    2  A    between atoms: C5_7  and  C6_9 
REMARK    3  A    between atoms: C6_9  and  C7_10 
REMARK    4  A    between atoms: C7_10  and  C8_11 
REMARK    5  A    between atoms: C12_15  and  N3_17 
ROOT
ATOM      1  C8  <0> d          -6.098  -2.289  -2.914  0.00  0.00    -0.056 A 
ATOM      2  C9  <0> d          -5.779  -2.908  -4.109  0.00  0.00     0.009 A 
ATOM      3  C10 <0> d          -6.726  -3.667  -4.772  0.00  0.00     0.026 A 
ATOM      4  C11 <0> d          -7.995  -3.808  -4.243  0.00  0.00     0.060 A 
ATOM      5  C12 <0> d          -8.318  -3.187  -3.042  0.00  0.00     0.048 A 
ATOM      6  C13 <0> d          -7.362  -2.430  -2.376  0.00  0.00     0.038 A 
ATOM      7 Cl1  <0> d          -9.184  -4.759  -5.076  0.00  0.00    -0.082 Cl
ENDROOT
BRANCH   1   8
ATOM      8  C7  <0> d          -5.062  -1.463  -2.196  0.00  0.00     0.047 C 
BRANCH   8   9
ATOM      9  C6  <0> d          -4.275  -2.356  -1.235  0.00  0.00     0.093 C 
BRANCH   9  10
ATOM     10  C5  <0> d          -3.239  -1.530  -0.516  0.00  0.00     0.169 A 
ATOM     11  N2  <0> d          -3.403  -0.901   0.613  0.00  0.00    -0.127 NA
ATOM     12  N1  <0> d          -2.310  -0.300   0.929  0.00  0.00    -0.126 NA
ATOM     13  C4  <0> d          -1.412  -0.526   0.013  0.00  0.00     0.172 A 
ATOM     14  O1  <0> d          -1.979  -1.304  -0.924  0.00  0.00    -0.277 OA
BRANCH  13  15
ATOM     15  C2  <0> d           0.002  -0.004   0.002  0.00  0.00     0.056 C 
ATOM     16  C1  <0> d          -0.019   1.526   0.010  0.00  0.00     0.018 C 
ATOM     17  C3  <0> d           0.742  -0.511   1.242  0.00  0.00     0.018 C 
ENDBRANCH  13  15
ENDBRANCH   9  10
ENDBRANCH   8   9
ENDBRANCH   1   8
BRANCH   5  18
ATOM     18  N3  <0> d          -9.600  -3.327  -2.503  0.00  0.00    -0.398 N 
ATOM     19  H15 <0> d         -10.265  -3.858  -2.967  0.00  0.00     0.156 HD
ATOM     20  H16 <0> d          -9.823  -2.893  -1.665  0.00  0.00     0.156 HD
ENDBRANCH   5  18
TORSDOF 5
ENDMDL
MODEL ZINC00149720
REMARK  5 active torsions:
REMARK  status: ('A' for Active; 'I' for Inactive)
REMARK    1  A    between atoms: O1_2  and  C2_3 
REMARK    2  A    between atoms: C7_8  and  C8_9 
REMARK    3  A    between atoms: C9_10  and  C10_11 
REMARK       I    between atoms: C10_11  and  N1_13 
REMARK    4  A    between atoms: N1_13  and  C11_14 
REMARK    5  A    between atoms: C12_17  and  C13_19 
ROOT
ATOM      1  C10 <0> d          -2.772  -2.077  -5.441  0.00  0.00     0.247 C 
ATOM      2  O2  <0> d          -2.076  -1.159  -5.836  0.00  0.00    -0.268 OA
ATOM      3  N1  <0> d          -2.790  -2.393  -4.131  0.00  0.00    -0.301 N 
ATOM      4  H11 <0> d          -3.344  -3.124  -3.817  0.00  0.00     0.171 HD
ENDROOT
BRANCH   1   5
ATOM      5  C9  <0> d          -3.588  -2.835  -6.388  0.00  0.00     0.075 C 
ATOM      6  C8  <0> d          -3.570  -2.517  -7.700  0.00  0.00     0.020 C 
BRANCH   6   7
ATOM      7  C7  <0> d          -4.390  -3.279  -8.652  0.00  0.00    -0.003 A 
ATOM      8  C2  <0> d          -4.375  -2.953 -10.017  0.00  0.00     0.078 A 
ATOM      9  C3  <0> d          -5.152  -3.679 -10.905  0.00  0.00     0.037 A 
ATOM     10  C4  <0> d          -5.938  -4.719 -10.448  0.00  0.00     0.003 A 
ATOM     11  C5  <0> d          -5.957  -5.045  -9.101  0.00  0.00     0.001 A 
ATOM     12  C6  <0> d          -5.187  -4.338  -8.204  0.00  0.00     0.014 A 
BRANCH   8  13
ATOM     13  O1  <0> d          -3.602  -1.931 -10.466  0.00  0.00    -0.355 OA
ATOM     14  C1  <0> d          -3.637  -1.658 -11.868  0.00  0.00     0.210 C 
ENDBRANCH   8  13
ENDBRANCH   6   7
ENDBRANCH   1   5
BRANCH   3  15
ATOM     15  C11 <0> d          -2.014  -1.673  -3.232  0.00  0.00     0.196 A 
ATOM     16  S1  <0> d          -1.834  -1.858  -1.460  0.00  0.00    -0.030 SA
ATOM     17  C12 <0> d          -0.666  -0.517  -1.247  0.00  0.00     0.129 A 
ATOM     18  N3  <0> d          -0.562  -0.104  -2.495  0.00  0.00    -0.142 NA
ATOM     19  N2  <0> d          -1.194  -0.652  -3.439  0.00  0.00    -0.123 NA
BRANCH  17  20
ATOM     20  C13 <0> d           0.002  -0.004   0.002  0.00  0.00     0.182 C 
ATOM     21  O3  <0> d          -0.017   1.428   0.010  0.00  0.00    -0.379 OA
ATOM     22  C16 <0> d           1.326   1.937  -0.000  0.00  0.00     0.168 C 
ATOM     23  C15 <0> d           2.192   0.804   0.604  0.00  0.00     0.029 C 
ATOM     24  C14 <0> d           1.480  -0.451   0.029  0.00  0.00     0.041 C 
ENDBRANCH  17  20
ENDBRANCH   3  15
TORSDOF 5
ENDMDL
MODEL ZINC82677815
REMARK  4 active torsions:
REMARK  status: ('A' for Active; 'I' for Inactive)
REMARK    1  A    between atoms: C4_4  and  C7_7 
REMARK    2  A    between atoms: C10_10  and  C12_15 
REMARK    3  A    between atoms: C12_15  and  C13_16 
REMARK    4  A    between atoms: C13_16  and  C14_17 
ROOT
ATOM      1  C7  <0> d           3.694  -0.682  -0.035  0.00  0.00     0.045 A 
ATOM      2  C8  <0> d           4.870   0.043  -0.021  0.00  0.00     0.031 A 
ATOM      3  C9  <0> d           6.097  -0.604  -0.038  0.00  0.00     0.019 A 
ATOM      4  C10 <0> d           6.128  -2.003  -0.069  0.00  0.00     0.032 A 
ATOM      5  C11 <0> d           4.857  -2.733  -0.082  0.00  0.00     0.256 A 
ATOM      6  O1  <0> d           4.849  -3.952  -0.108  0.00  0.00    -0.267 OA
ATOM      7  N1  <0> d           3.699  -2.046  -0.059  0.00  0.00    -0.322 N 
ATOM      8  H1  <0> d           2.857  -2.527  -0.064  0.00  0.00     0.169 HD
ENDROOT
BRANCH   1   9
ATOM      9  C4  <0> d           2.404   0.035  -0.016  0.00  0.00    -0.009 A 
ATOM     10  C3  <0> d           2.378   1.432   0.009  0.00  0.00     0.013 A 
ATOM     11  C2  <0> d           1.169   2.095   0.025  0.00  0.00     0.001 A 
ATOM     12  C1  <0> d          -0.016   1.380   0.017  0.00  0.00     0.000 A 
ATOM     13  C6  <0> d           0.002  -0.003  -0.008  0.00  0.00     0.001 A 
ATOM     14  C5  <0> d           1.204  -0.680  -0.024  0.00  0.00     0.013 A 
ENDBRANCH   1   9
BRANCH   4  15
ATOM     15  C12 <0> d           7.363  -2.700  -0.087  0.00  0.00     0.024 C 
BRANCH  15  16
ATOM     16  C13 <0> d           7.380  -4.056   0.003  0.00  0.00     0.085 C 
BRANCH  16  17
ATOM     17  C14 <0> d           8.608  -4.740   0.092  0.00  0.00     0.198 C 
ATOM     18  O2  <0> d           9.661  -4.113   0.089  0.00  0.00    -0.645 OA
ATOM     19  O3  <0> d           8.623  -5.963   0.173  0.00  0.00    -0.645 OA
ENDBRANCH  16  17
ENDBRANCH  15  16
ENDBRANCH   4  15
TORSDOF 4
ENDMDL
MODEL ZINC82713293
REMARK  2 active torsions:
REMARK  status: ('A' for Active; 'I' for Inactive)
REMARK    1  A    between atoms: C6_6  and  N1_7 
REMARK    2  A    between atoms: C10_11  and  C11_12 
ROOT
ATOM      1  C1  <0> d          -0.017   1.384   0.010  0.00  0.00     0.036 A 
ATOM      2  C2  <0> d           1.171   2.091   0.002  0.00  0.00     0.048 A 
ATOM      3  C3  <0> d           2.380   1.418  -0.013  0.00  0.00     0.158 A 
ATOM      4  C4  <0> d           2.403   0.032  -0.021  0.00  0.00     0.195 A 
ATOM      5  C5  <0> d           1.216  -0.681  -0.013  0.00  0.00     0.184 A 
ATOM      6  C6  <0> d           0.002  -0.004   0.002  0.00  0.00     0.073 A 
ATOM      7  F1  <0> d           1.238  -2.032  -0.021  0.00  0.00    -0.200 F 
ATOM      8  F2  <0> d           3.585  -0.624  -0.037  0.00  0.00    -0.199 F 
ATOM      9  F3  <0> d           3.538   2.113  -0.022  0.00  0.00    -0.203 F 
ENDROOT
BRANCH   6  10
ATOM     10  N1  <0> d          -1.200  -0.721   0.010  0.00  0.00    -0.363 N 
ATOM     11  C10 <0> d          -1.948  -1.154  -1.180  0.00  0.00     0.185 C 
ATOM     12  C9  <0> d          -3.213  -1.886  -0.685  0.00  0.00     0.038 C 
ATOM     13  C8  <0> d          -3.399  -1.323   0.749  0.00  0.00     0.022 C 
ATOM     14  C7  <0> d          -1.929  -1.163   1.213  0.00  0.00     0.124 C 
BRANCH  11  15
ATOM     15  C11 <0> d          -1.104  -2.094  -2.001  0.00  0.00     0.196 C 
ATOM     16  O1  <0> d          -0.276  -2.804  -1.457  0.00  0.00    -0.646 OA
ATOM     17  O2  <0> d          -1.249  -2.144  -3.211  0.00  0.00    -0.646 OA
ENDBRANCH  11  15
ENDBRANCH   6  10
TORSDOF 2
ENDMDL
MODEL ZINC82719506
REMARK  2 active torsions:
REMARK  status: ('A' for Active; 'I' for Inactive)
REMARK    1  A    between atoms: C2_2  and  N1_3 
REMARK    2  A    between atoms: C4_6  and  C7_14 
ROOT
ATOM      1  N1  <0> d          -1.344  -0.596   0.011  0.00  0.00    -0.141 N 
ATOM      2  C3  <0> d          -1.970  -0.832   1.182  0.00  0.00     0.293 A 
ATOM      3  O1  <0> d          -1.375  -0.696   2.235  0.00  0.00    -0.265 OA
ATOM      4  C4  <0> d          -3.382  -1.257   1.174  0.00  0.00     0.157 A 
ATOM      5  N2  <0> d          -4.009  -1.399   0.035  0.00  0.00    -0.144 NA
ATOM      6  N3  <0> d          -3.347  -1.149  -1.173  0.00  0.00    -0.032 N 
ATOM      7  C5  <0> d          -2.034  -0.748  -1.179  0.00  0.00     0.753 A 
ATOM      8  N4  <0> d          -1.669  -0.580  -2.428  0.00  0.00     0.047 NA
ATOM      9  N5  <0> d          -2.768  -0.873  -3.246  0.00  0.00    -0.105 NA
ATOM     10  C6  <0> d          -3.769  -1.223  -2.475  0.00  0.00     0.240 A 
ATOM     11  S1  <0> d          -5.380  -1.686  -3.017  0.00  0.00    -0.007 SA
ENDROOT
BRANCH   4  12
ATOM     12  C7  <0> d          -4.087  -1.522   2.450  0.00  0.00    -0.000 A 
ATOM     13  C12 <0> d          -5.127  -2.450   2.495  0.00  0.00     0.014 A 
ATOM     14  C11 <0> d          -5.777  -2.697   3.688  0.00  0.00     0.001 A 
ATOM     15  C10 <0> d          -5.405  -2.018   4.834  0.00  0.00     0.000 A 
ATOM     16  C9  <0> d          -4.377  -1.093   4.795  0.00  0.00     0.001 A 
ATOM     17  C8  <0> d          -3.717  -0.841   3.609  0.00  0.00     0.014 A 
ENDBRANCH   4  12
BRANCH   1  18
ATOM     18  C2  <0> d           0.059  -0.173  -0.002  0.00  0.00     0.147 C 
ATOM     19  C1  <0> d           0.131   1.354   0.058  0.00  0.00     0.027 C 
ENDBRANCH   1  18
TORSDOF 2
ENDMDL
MODEL ZINC82732142
REMARK  3 active torsions:
REMARK  status: ('A' for Active; 'I' for Inactive)
REMARK    1  A    between atoms: C4_4  and  C8_12 
REMARK    2  A    between atoms: C7_9  and  N4_11 
REMARK    3  A    between atoms: C13_17  and  C14_18 
ROOT
ATOM      1  C1  <0> d          -0.019   1.526   0.010  0.00  0.00     0.018 C 
ATOM      2  C2  <0> d           0.002  -0.004   0.002  0.00  0.00     0.054 C 
ATOM      3  C3  <0> d          -1.435  -0.541   0.028  0.00  0.00     0.023 C 
ATOM      4  C4  <0> d          -2.045  -0.284   1.409  0.00  0.00     0.040 C 
ATOM      5  C5  <0> d          -1.355  -1.176   2.447  0.00  0.00     0.162 C 
ATOM      6  N1  <0> d           0.094  -1.028   2.306  0.00  0.00    -0.239 N 
ATOM      7  C6  <0> d           0.718  -0.510   1.230  0.00  0.00     0.146 A 
ATOM      8  N2  <0> d           2.003  -0.534   1.454  0.00  0.00    -0.046 NA
ATOM      9  C7  <0> d           2.241  -1.061   2.661  0.00  0.00     0.738 A 
ATOM     10  N3  <0> d           1.092  -1.378   3.220  0.00  0.00     0.022 NA
ENDROOT
BRANCH   4  11
ATOM     11  C8  <0> d          -3.518  -0.601   1.374  0.00  0.00    -0.037 A 
ATOM     12  C13 <0> d          -4.444   0.383   1.663  0.00  0.00     0.054 A 
ATOM     13  C12 <0> d          -5.795   0.093   1.627  0.00  0.00     0.017 A 
ATOM     14  C11 <0> d          -6.220  -1.184   1.311  0.00  0.00     0.001 A 
ATOM     15  C10 <0> d          -5.293  -2.170   1.027  0.00  0.00     0.001 A 
ATOM     16  C9  <0> d          -3.942  -1.879   1.059  0.00  0.00     0.008 A 
BRANCH  12  17
ATOM     17  C14 <0> d          -3.981   1.774   2.012  0.00  0.00     0.418 C 
ATOM     18  F1  <0> d          -5.092   2.587   2.262  0.00  0.00    -0.166 F 
ATOM     19  F2  <0> d          -3.174   1.724   3.154  0.00  0.00    -0.166 F 
ATOM     20  F3  <0> d          -3.247   2.303   0.945  0.00  0.00    -0.166 F 
ENDBRANCH  12  17
ENDBRANCH   4  11
BRANCH   9  21
ATOM     21  N4  <0> d           3.502  -1.244   3.233  0.00  0.00    -0.230 N 
ATOM     22  H10 <0> d           4.298  -0.979   2.747  0.00  0.00     0.174 HD
ATOM     23  H11 <0> d           3.581  -1.635   4.117  0.00  0.00     0.174 HD
ENDBRANCH   9  21
TORSDOF 3
ENDMDL
MODEL ZINC82769435
REMARK  1 active torsions:
REMARK  status: ('A' for Active; 'I' for Inactive)
REMARK    1  A    between atoms: C4_4  and  C11_13 
ROOT
ATOM      1  C1  <0> d          -0.018   1.503   0.010  0.00  0.00     0.049 C 
ATOM      2  C2  <0> d           0.002  -0.004   0.002  0.00  0.00    -0.047 A 
ATOM      3  C3  <0> d           0.006  -0.698  -1.173  0.00  0.00     0.042 A 
ATOM      4  C4  <0> d           0.025  -2.101  -1.155  0.00  0.00     0.095 A 
ATOM      5  N1  <0> d           0.039  -2.776  -0.020  0.00  0.00    -0.245 NA
ATOM      6  C5  <0> d           0.036  -2.151   1.157  0.00  0.00     0.068 A 
ATOM      7  C6  <0> d           0.023  -0.733   1.207  0.00  0.00     0.002 A 
ATOM      8  C7  <0> d           0.026  -0.083   2.450  0.00  0.00     0.056 A 
ATOM      9  C8  <0> d           0.046  -0.821   3.597  0.00  0.00     0.117 A 
ATOM     10  C9  <0> d           0.065  -2.217   3.550  0.00  0.00     0.044 A 
ATOM     11  C10 <0> d           0.051  -2.879   2.363  0.00  0.00     0.035 A 
ATOM     12  F1  <0> d           0.049  -0.194   4.794  0.00  0.00    -0.206 F 
ENDROOT
BRANCH   4  13
ATOM     13  C11 <0> d           0.029  -2.841  -2.436  0.00  0.00     0.123 C 
ATOM     14  S1  <0> d           0.011  -1.985  -3.918  0.00  0.00    -0.058 SA
ATOM     15  N2  <0> d           0.048  -4.188  -2.436  0.00  0.00    -0.388 N 
ATOM     16  H8  <0> d           0.058  -4.673  -1.596  0.00  0.00     0.157 HD
ATOM     17  H9  <0> d           0.050  -4.673  -3.276  0.00  0.00     0.157 HD
ENDBRANCH   4  13
TORSDOF 1
ENDMDL
MODEL ZINC82826296
REMARK  4 active torsions:
REMARK  status: ('A' for Active; 'I' for Inactive)
REMARK    1  A    between atoms: N1_5  and  C5_7 
REMARK    2  A    between atoms: C5_7  and  C6_8 
REMARK    3  A    between atoms: C6_8  and  C7_9 
REMARK    4  A    between atoms: C11_15  and  N3_16 
ROOT
ATOM      1  C1  <0> d          -0.018   1.503   0.010  0.00  0.00     0.073 C 
ATOM      2  C2  <0> d           0.002  -0.004   0.002  0.00  0.00     0.061 A 
ATOM      3  C3  <0> d           0.008  -0.816  -1.130  0.00  0.00     0.022 A 
ATOM      4  C4  <0> d           0.027  -2.109  -0.718  0.00  0.00     0.041 A 
ATOM      5  N1  <0> d           0.035  -2.114   0.625  0.00  0.00    -0.273 N 
ATOM      6  N2  <0> d           0.023  -0.779   1.059  0.00  0.00    -0.177 NA
ATOM      7  C8  <0> d           0.035  -3.294  -1.651  0.00  0.00     0.059 C 
ATOM      8  C9  <0> d          -0.395  -2.816  -3.044  0.00  0.00     0.008 C 
ATOM      9  C10 <0> d           0.425  -1.584  -3.437  0.00  0.00     0.038 C 
ATOM     10  C11 <0> d          -0.003  -0.389  -2.576  0.00  0.00     0.220 C 
ENDROOT
BRANCH   5  11
ATOM     11  C5  <0> d           0.057  -3.300   1.484  0.00  0.00     0.161 C 
BRANCH  11  12
ATOM     12  C6  <0> d           1.507  -3.692   1.775  0.00  0.00     0.135 C 
BRANCH  12  13
ATOM     13  C7  <0> d           1.529  -4.913   2.659  0.00  0.00     0.174 C 
ATOM     14  O1  <0> d           0.483  -5.422   3.022  0.00  0.00    -0.648 OA
ATOM     15  O2  <0> d           2.594  -5.391   3.010  0.00  0.00    -0.648 OA
ENDBRANCH  12  13
ENDBRANCH  11  12
ENDBRANCH   5  11
BRANCH  10  16
ATOM     16  N3  <0> d           0.938   0.723  -2.771  0.00  0.00    -0.071 N 
ATOM     17  H15 <0> d           1.868   0.425  -2.517  0.00  0.00     0.275 HD
ATOM     18  H16 <0> d           0.928   1.006  -3.740  0.00  0.00     0.275 HD
ATOM     19  H17 <0> d           0.663   1.501  -2.191  0.00  0.00     0.275 HD
ENDBRANCH  10  16
TORSDOF 4
ENDMDL
MODEL ZINC82853469
REMARK  2 active torsions:
REMARK  status: ('A' for Active; 'I' for Inactive)
REMARK    1  A    between atoms: C4_6  and  C5_7 
REMARK    2  A    between atoms: C5_7  and  C7_9 
ROOT
ATOM      1  C1  <0> d          -0.591   1.439   0.144  0.00  0.00     0.052 C 
ATOM      2  C2  <0> d          -0.334  -0.037  -0.013  0.00  0.00    -0.018 A 
ATOM      3  C3  <0> d          -0.314  -0.745  -1.219  0.00  0.00     0.147 A 
ATOM      4  N1  <0> d          -0.058  -2.000  -0.952  0.00  0.00    -0.185 NA
ATOM      5  N2  <0> d           0.092  -2.131   0.434  0.00  0.00    -0.277 N 
ATOM      6  C4  <0> d          -0.076  -0.912   0.987  0.00  0.00     0.051 A 
ATOM      7  C8  <0> d           0.387  -3.371   1.156  0.00  0.00     0.179 C 
ENDROOT
BRANCH   6   8
ATOM      8  C5  <0> d           0.004  -0.583   2.456  0.00  0.00     0.135 C 
ATOM      9  C6  <0> d          -1.067  -1.371   3.214  0.00  0.00     0.028 C 
BRANCH   8  10
ATOM     10  C7  <0> d           1.367  -0.956   2.980  0.00  0.00     0.182 C 
ATOM     11  O1  <0> d           1.933  -0.227   3.777  0.00  0.00    -0.647 OA
ATOM     12  O2  <0> d           1.903  -1.985   2.607  0.00  0.00    -0.647 OA
ENDBRANCH   8  10
ENDBRANCH   6   8
TORSDOF 2
ENDMDL
MODEL ZINC61707288
REMARK  3 active torsions:
REMARK  status: ('A' for Active; 'I' for Inactive)
REMARK    1  A    between atoms: C3_3  and  C7_9 
REMARK    2  A    between atoms: C6_6  and  N1_7 
REMARK       I    between atoms: C7_9  and  N2_11 
REMARK    3  A    between atoms: C10_14  and  O2_16 
ROOT
ATOM      1  C1  <0> d           0.196   1.031  -0.929  0.00  0.00     0.030 A 
ATOM      2  C2  <0> d           1.365   1.737  -0.930  0.00  0.00     0.022 A 
ATOM      3  C3  <0> d           2.378   1.417  -0.020  0.00  0.00     0.070 A 
ATOM      4  C4  <0> d           2.189   0.372   0.893  0.00  0.00     0.134 A 
ATOM      5  C5  <0> d           1.004  -0.335   0.888  0.00  0.00     0.072 A 
ATOM      6  C6  <0> d           0.004  -0.008  -0.022  0.00  0.00     0.028 A 
ATOM      7  F1  <0> d           3.163   0.057   1.775  0.00  0.00    -0.205 F 
ENDROOT
BRANCH   3   8
ATOM      8  C7  <0> d           3.640   2.178  -0.022  0.00  0.00     0.256 C 
ATOM      9  O1  <0> d           4.703   1.592   0.061  0.00  0.00    -0.267 OA
ATOM     10  N2  <0> d           3.617   3.522  -0.117  0.00  0.00    -0.345 N 
ATOM     11  C11 <0> d           4.799   4.395  -0.242  0.00  0.00     0.157 C 
ATOM     12  C8  <0> d           2.410   4.361  -0.107  0.00  0.00     0.129 C 
ATOM     13  C10 <0> d           4.337   5.770   0.296  0.00  0.00     0.137 C 
ATOM     14  C9  <0> d           2.872   5.830  -0.211  0.00  0.00     0.053 C 
BRANCH  13  15
ATOM     15  O2  <0> d           5.116   6.829  -0.262  0.00  0.00    -0.394 OA
ATOM     16  H13 <0> d           6.039   6.833   0.026  0.00  0.00     0.210 HD
ENDBRANCH  13  15
ENDBRANCH   3   8
BRANCH   6  17
ATOM     17  N1  <0> d          -1.189  -0.721  -0.027  0.00  0.00    -0.399 N 
ATOM     18  H5  <0> d          -1.887  -0.494  -0.661  0.00  0.00     0.156 HD
ATOM     19  H6  <0> d          -1.324  -1.446   0.604  0.00  0.00     0.156 HD
ENDBRANCH   6  17
TORSDOF 3
ENDMDL
MODEL ZINC83013527
REMARK  2 active torsions:
REMARK  status: ('A' for Active; 'I' for Inactive)
REMARK    1  A    between atoms: C5_6  and  N3_16 
REMARK    2  A    between atoms: C10_11  and  N2_13 
ROOT
ATOM      1  C1  <0> d          -0.037   1.457   0.007  0.00  0.00     0.149 C 
ATOM      2  N1  <0> d          -0.002  -0.008  -0.000  0.00  0.00    -0.385 N 
ATOM      3  C2  <0> d           0.017  -0.737  -1.271  0.00  0.00     0.122 C 
ATOM      4  C3  <0> d           1.473  -0.832  -1.734  0.00  0.00     0.022 C 
ATOM      5  C4  <0> d           2.359  -0.901  -0.477  0.00  0.00     0.039 C 
ATOM      6  C5  <0> d           1.960  -2.112   0.365  0.00  0.00     0.218 C 
ATOM      7  C6  <0> d           0.929  -1.736   1.399  0.00  0.00     0.001 A 
ATOM      8  C7  <0> d           0.020  -0.714   1.204  0.00  0.00     0.038 A 
ATOM      9  C8  <0> d          -0.886  -0.386   2.205  0.00  0.00     0.032 A 
ATOM     10  C9  <0> d          -0.892  -1.091   3.393  0.00  0.00     0.031 A 
ATOM     11  C10 <0> d           0.012  -2.127   3.582  0.00  0.00     0.030 A 
ATOM     12  C11 <0> d           0.909  -2.447   2.590  0.00  0.00     0.040 A 
ENDROOT
BRANCH   6  13
ATOM     13  N3  <0> d           3.150  -2.643   1.042  0.00  0.00    -0.071 N 
ATOM     14  H20 <0> d           3.543  -1.930   1.639  0.00  0.00     0.275 HD
ATOM     15  H21 <0> d           2.891  -3.443   1.600  0.00  0.00     0.275 HD
ATOM     16  H22 <0> d           3.834  -2.919   0.354  0.00  0.00     0.275 HD
ENDBRANCH   6  13
BRANCH  11  17
ATOM     17  N2  <0> d           0.004  -2.852   4.780  0.00  0.00    -0.390 N 
ATOM     18  C12 <0> d          -0.869  -2.437   5.881  0.00  0.00     0.149 C 
ATOM     19  C13 <0> d           0.870  -4.024   4.933  0.00  0.00     0.149 C 
ENDBRANCH  11  17
TORSDOF 2
ENDMDL
MODEL ZINC83020383
REMARK  1 active torsions:
REMARK  status: ('A' for Active; 'I' for Inactive)
REMARK    1  A    between atoms: C5_8  and  C7_10 
ROOT
ATOM      1  C1  <0> d          -0.018   1.461   0.010  0.00  0.00     0.168 C 
ATOM      2  N1  <0> d           0.002  -0.004   0.002  0.00  0.00    -0.220 N 
ATOM      3  C2  <0> d           0.009  -0.849  -1.198  0.00  0.00     0.161 A 
ATOM      4  C3  <0> d           0.030  -2.288  -0.653  0.00  0.00     0.167 A 
ATOM      5  N2  <0> d           0.034  -2.131   0.808  0.00  0.00    -0.190 N 
ATOM      6  C4  <0> d           0.024  -0.815   1.126  0.00  0.00     0.682 A 
ATOM      7  N3  <0> d           0.035  -0.716   2.444  0.00  0.00    -0.191 N 
ATOM      8  C5  <0> d           0.057  -1.945   2.983  0.00  0.00     0.085 A 
ATOM      9  C6  <0> d           0.049  -2.844   1.986  0.00  0.00     0.137 A 
ATOM     10  H16 <0> d           0.029   0.115   2.944  0.00  0.00     0.184 HD
ENDROOT
BRANCH   8  11
ATOM     11  C7  <0> d           0.075  -2.262   4.457  0.00  0.00     0.362 C 
ATOM     12  N5  <0> d           0.657  -1.131   5.191  0.00  0.00     0.104 N 
ATOM     13  C10 <0> d           0.480  -1.321   6.640  0.00  0.00     0.290 C 
ATOM     14  H15 <0> d           1.632  -1.012   4.960  0.00  0.00     0.317 HD
ATOM     15  C9  <0> d          -1.006  -1.183   6.973  0.00  0.00     0.152 C 
ATOM     16  N4  <0> d          -1.799  -2.028   6.085  0.00  0.00    -0.357 N 
ATOM     17  C8  <0> d          -1.328  -2.512   4.931  0.00  0.00     0.257 C 
ATOM     18  H10 <0> d          -2.708  -2.248   6.343  0.00  0.00     0.162 HD
ATOM     19  O1  <0> d          -2.065  -3.182   4.238  0.00  0.00    -0.271 OA
ENDBRANCH   8  11
TORSDOF 1
ENDMDL
MODEL ZINC83041351
REMARK  3 active torsions:
REMARK  status: ('A' for Active; 'I' for Inactive)
REMARK    1  A    between atoms: C3_3  and  C7_8 
REMARK    2  A    between atoms: C10_12  and  C11_13 
REMARK    3  A    between atoms: C11_13  and  C12_14 
ROOT
ATOM      1  C7  <0> d           3.672   2.186  -0.021  0.00  0.00     0.051 C 
ATOM      2  C8  <0> d           4.523   1.794  -1.250  0.00  0.00     0.039 C 
ATOM      3  C9  <0> d           5.963   1.766  -0.679  0.00  0.00     0.233 C 
ATOM      4  N1  <0> d           5.778   1.205   0.683  0.00  0.00    -0.070 N 
ATOM      5  C10 <0> d           4.528   1.808   1.202  0.00  0.00     0.204 C 
ATOM      6  H11 <0> d           5.688   0.202   0.637  0.00  0.00     0.277 HD
ATOM      7  H14 <0> d           6.556   1.460   1.273  0.00  0.00     0.277 HD
ENDROOT
BRANCH   1   8
ATOM      8  C3  <0> d           2.378   1.413  -0.013  0.00  0.00    -0.049 A 
ATOM      9  C2  <0> d           1.171   2.086   0.002  0.00  0.00     0.007 A 
ATOM     10  C1  <0> d          -0.017   1.377   0.010  0.00  0.00     0.004 A 
ATOM     11  C6  <0> d           0.002  -0.004   0.002  0.00  0.00     0.042 A 
ATOM     12  C5  <0> d           1.211  -0.679  -0.013  0.00  0.00     0.116 A 
ATOM     13  C4  <0> d           2.399   0.030  -0.021  0.00  0.00     0.049 A 
ATOM     14  F1  <0> d           1.230  -2.030  -0.022  0.00  0.00    -0.206 F 
ENDBRANCH   1   8
BRANCH   5  15
ATOM     15  C11 <0> d           4.850   3.060   2.019  0.00  0.00     0.146 C 
BRANCH  15  16
ATOM     16  C12 <0> d           5.582   2.665   3.276  0.00  0.00     0.174 C 
ATOM     17  O1  <0> d           5.824   1.490   3.497  0.00  0.00    -0.648 OA
ATOM     18  O2  <0> d           5.933   3.519   4.071  0.00  0.00    -0.648 OA
ENDBRANCH  15  16
ENDBRANCH   5  15
TORSDOF 3
ENDMDL
MODEL ZINC83110039
REMARK  4 active torsions:
REMARK  status: ('A' for Active; 'I' for Inactive)
REMARK    1  A    between atoms: C2_2  and  C3_3 
REMARK    2  A    between atoms: C5_5  and  C7_8 
REMARK    3  A    between atoms: C11_12  and  O2_16 
REMARK    4  A    between atoms: C12_13  and  O1_14 
ROOT
ATOM      1  C7  <0> d          -2.375  -3.889  -1.345  0.00  0.00    -0.016 A 
ATOM      2  C8  <0> d          -1.250  -4.173  -2.097  0.00  0.00     0.010 A 
ATOM      3  C9  <0> d          -1.049  -5.448  -2.590  0.00  0.00     0.003 A 
ATOM      4  C10 <0> d          -1.972  -6.446  -2.334  0.00  0.00     0.039 A 
ATOM      5  C11 <0> d          -3.101  -6.167  -1.581  0.00  0.00     0.102 A 
ATOM      6  C12 <0> d          -3.300  -4.884  -1.079  0.00  0.00     0.108 A 
ENDROOT
BRANCH   1   7
ATOM      7  C5  <0> d          -2.590  -2.497  -0.808  0.00  0.00     0.049 C 
ATOM      8  C4  <0> d          -1.424  -2.073   0.123  0.00  0.00     0.044 C 
ATOM      9  C3  <0> d          -1.433  -0.534   0.013  0.00  0.00     0.186 C 
ATOM     10  N1  <0> d          -2.106  -0.187  -1.253  0.00  0.00    -0.070 N 
ATOM     11  C6  <0> d          -2.486  -1.443  -1.940  0.00  0.00     0.242 C 
ATOM     12  H12 <0> d          -2.931   0.361  -1.060  0.00  0.00     0.277 HD
ATOM     13  H22 <0> d          -1.477   0.344  -1.837  0.00  0.00     0.277 HD
BRANCH   9  14
ATOM     14  C2  <0> d           0.002  -0.004   0.002  0.00  0.00     0.028 C 
ATOM     15  C1  <0> d          -0.019   1.526   0.010  0.00  0.00     0.007 C 
ENDBRANCH   9  14
ENDBRANCH   1   7
BRANCH   6  16
ATOM     16  O1  <0> d          -4.404  -4.607  -0.334  0.00  0.00    -0.353 OA
ATOM     17  C13 <0> d          -5.567  -4.166  -1.037  0.00  0.00     0.210 C 
ENDBRANCH   6  16
BRANCH   5  18
ATOM     18  O2  <0> d          -4.010  -7.147  -1.327  0.00  0.00    -0.353 OA
ATOM     19  C14 <0> d          -3.737  -8.441  -1.869  0.00  0.00     0.210 C 
ENDBRANCH   5  18
TORSDOF 4
ENDMDL
MODEL ZINC83152625
REMARK  6 active torsions:
REMARK  status: ('A' for Active; 'I' for Inactive)
REMARK    1  A    between atoms: C4_4  and  O2_18 
REMARK    2  A    between atoms: C5_5  and  C9_10 
REMARK    3  A    between atoms: C9_10  and  C10_11 
REMARK    4  A    between atoms: C9_10  and  O1_17 
REMARK    5  A    between atoms: O2_18  and  C15_19 
REMARK    6  A    between atoms: C15_19  and  C16_20 
ROOT
ATOM      1  C1  <0> d          -0.496   1.454   0.109  0.00  0.00     0.050 C 
ATOM      2  C2  <0> d          -0.227  -0.027   0.049  0.00  0.00    -0.037 A 
ATOM      3  C3  <0> d          -0.058  -0.650  -1.173  0.00  0.00     0.045 A 
ATOM      4  C4  <0> d           0.189  -2.013  -1.227  0.00  0.00     0.078 A 
ATOM      5  C5  <0> d           0.268  -2.750  -0.054  0.00  0.00     0.012 A 
ATOM      6  C6  <0> d           0.099  -2.124   1.166  0.00  0.00    -0.028 A 
ATOM      7  C7  <0> d          -0.143  -0.762   1.218  0.00  0.00     0.046 A 
ATOM      8 Cl1  <0> d          -0.347   0.024   2.753  0.00  0.00    -0.083 Cl
ATOM      9  C8  <0> d           0.184  -2.923   2.441  0.00  0.00     0.050 C 
ENDROOT
BRANCH   5  10
ATOM     10  C9  <0> d           0.536  -4.231  -0.110  0.00  0.00     0.160 C 
BRANCH  10  11
ATOM     11  C10 <0> d           1.999  -4.471  -0.489  0.00  0.00     0.045 C 
ATOM     12  C14 <0> d           2.273  -5.975  -0.544  0.00  0.00     0.239 C 
ATOM     13  N1  <0> d           3.676  -6.208  -0.905  0.00  0.00    -0.075 N 
ATOM     14  C13 <0> d           4.556  -5.657   0.134  0.00  0.00     0.232 C 
ATOM     15  H16 <0> d           3.875  -5.757  -1.786  0.00  0.00     0.277 HD
ATOM     16  H29 <0> d           3.841  -7.199  -0.992  0.00  0.00     0.277 HD
ATOM     17  C12 <0> d           4.370  -4.140   0.214  0.00  0.00     0.028 C 
ATOM     18  C11 <0> d           2.911  -3.829   0.560  0.00  0.00     0.011 C 
ENDBRANCH  10  11
BRANCH  10  19
ATOM     19  O1  <0> d          -0.314  -4.833  -1.088  0.00  0.00    -0.390 OA
ATOM     20  H19 <0> d          -0.191  -4.486  -1.983  0.00  0.00     0.210 HD
ENDBRANCH  10  19
ENDBRANCH   5  10
BRANCH   4  21
ATOM     21  O2  <0> d           0.355  -2.628  -2.428  0.00  0.00    -0.350 OA
BRANCH  21  22
ATOM     22  C15 <0> d           0.261  -1.808  -3.595  0.00  0.00     0.179 C 
BRANCH  22  23
ATOM     23  C16 <0> d           0.472  -2.668  -4.842  0.00  0.00     0.002 C 
ATOM     24  C17 <0> d          -0.670  -3.679  -4.964  0.00  0.00     0.011 C 
ATOM     25  C18 <0> d           0.496  -1.773  -6.082  0.00  0.00     0.011 C 
ENDBRANCH  22  23
ENDBRANCH  21  22
ENDBRANCH   4  21
TORSDOF 6
ENDMDL
MODEL ZINC83237683
REMARK  4 active torsions:
REMARK  status: ('A' for Active; 'I' for Inactive)
REMARK    1  A    between atoms: C7_8  and  C8_10 
REMARK    2  A    between atoms: C11_13  and  N2_16 
REMARK       I    between atoms: N2_16  and  C14_17 
REMARK    3  A    between atoms: C14_17  and  C15_19 
REMARK    4  A    between atoms: C17_21  and  C18_22 
ROOT
ATOM      1  C8  <0> d           6.225  -2.835   0.845  0.00  0.00     0.017 A 
ATOM      2  C9  <0> d           5.323  -3.825   1.240  0.00  0.00     0.018 A 
ATOM      3  C10 <0> d           5.617  -5.152   1.014  0.00  0.00     0.030 A 
ATOM      4  C11 <0> d           6.810  -5.506   0.394  0.00  0.00     0.034 A 
ATOM      5  C12 <0> d           7.710  -4.522  -0.001  0.00  0.00     0.030 A 
ATOM      6  C13 <0> d           7.420  -3.193   0.216  0.00  0.00     0.018 A 
ENDROOT
BRANCH   4   7
ATOM      7  N2  <0> d           7.105  -6.851   0.166  0.00  0.00    -0.327 N 
ATOM      8  C14 <0> d           6.115  -7.719  -0.124  0.00  0.00     0.227 C 
ATOM      9  O2  <0> d           4.982  -7.316  -0.278  0.00  0.00    -0.273 OA
ATOM     10  H11 <0> d           8.023  -7.162   0.217  0.00  0.00     0.169 HD
BRANCH   8  11
ATOM     11  C15 <0> d           6.416  -9.189  -0.256  0.00  0.00     0.093 A 
ATOM     12  C17 <0> d           6.957  -9.681  -1.600  0.00  0.00     0.100 A 
ATOM     13  C16 <0> d           5.521 -10.013  -1.184  0.00  0.00     0.031 A 
BRANCH  12  14
ATOM     14  C18 <0> d           7.147  -8.658  -2.690  0.00  0.00     0.177 C 
ATOM     15  O3  <0> d           8.271  -8.359  -3.056  0.00  0.00    -0.648 OA
ATOM     16  O4  <0> d           6.177  -8.130  -3.207  0.00  0.00    -0.648 OA
ENDBRANCH  12  14
ENDBRANCH   8  11
ENDBRANCH   4   7
BRANCH   1  17
ATOM     17  C7  <0> d           5.912  -1.411   1.085  0.00  0.00     0.180 A 
ATOM     18  N1  <0> d           4.824  -0.969   1.663  0.00  0.00    -0.221 NA
ATOM     19  C5  <0> d           4.878   0.387   1.714  0.00  0.00     0.093 A 
ATOM     20  C4  <0> d           6.092   0.766   1.119  0.00  0.00     0.106 A 
ATOM     21  C6  <0> d           4.016   1.369   2.209  0.00  0.00     0.034 A 
ATOM     22  C3  <0> d           6.426   2.108   1.027  0.00  0.00     0.040 A 
ATOM     23  O1  <0> d           6.705  -0.379   0.741  0.00  0.00    -0.289 OA
ATOM     24  C2  <0> d           5.564   3.066   1.520  0.00  0.00     0.003 A 
ATOM     25  C1  <0> d           4.364   2.697   2.108  0.00  0.00     0.002 A 
ENDBRANCH   1  17
TORSDOF 4
ENDMDL
MODEL ZINC83272394
REMARK  0 active torsions:
REMARK  status: ('A' for Active; 'I' for Inactive)
ROOT
ATOM      1  C1  <0> d          -0.019   1.526   0.010  0.00  0.00     0.022 C 
ATOM      2  C2  <0> d           0.002  -0.004   0.002  0.00  0.00     0.052 C 
ATOM      3  C3  <0> d          -1.424  -0.588   0.117  0.00  0.00     0.055 C 
ATOM      4  C4  <0> d          -1.447  -1.853   0.940  0.00  0.00    -0.039 A 
ATOM      5  C5  <0> d          -2.436  -2.839   0.922  0.00  0.00     0.009 A 
ATOM      6  C6  <0> d          -2.358  -3.953   1.732  0.00  0.00     0.002 A 
ATOM      7  C7  <0> d          -1.298  -4.132   2.594  0.00  0.00     0.024 A 
ATOM      8  C8  <0> d          -0.287  -3.166   2.633  0.00  0.00     0.061 A 
ATOM      9  C9  <0> d          -0.369  -2.049   1.799  0.00  0.00     0.028 A 
ATOM     10  S1  <0> d           0.734  -0.674   1.552  0.00  0.00    -0.123 SA
ATOM     11  C10 <0> d           0.824  -3.321   3.523  0.00  0.00     0.101 C 
ATOM     12  N1  <0> d           1.706  -3.444   4.229  0.00  0.00    -0.191 NA
ENDROOT
TORSDOF 0
ENDMDL
MODEL ZINC83277320
REMARK  3 active torsions:
REMARK  status: ('A' for Active; 'I' for Inactive)
REMARK    1  A    between atoms: C8_8  and  C10_11 
REMARK    2  A    between atoms: C10_11  and  C11_12 
REMARK    3  A    between atoms: C11_12  and  N1_14 
ROOT
ATOM      1  C1  <0> d          -0.018   1.503   0.010  0.00  0.00     0.048 C 
ATOM      2  C2  <0> d           0.002  -0.004   0.002  0.00  0.00    -0.061 A 
ATOM      3  C3  <0> d           0.006  -0.687  -1.206  0.00  0.00     0.009 A 
ATOM      4  C4  <0> d           0.024  -2.065  -1.235  0.00  0.00     0.039 A 
ATOM      5  C5  <0> d           0.039  -2.781  -0.044  0.00  0.00     0.085 A 
ATOM      6  C6  <0> d           0.036  -2.084   1.175  0.00  0.00     0.006 A 
ATOM      7  C7  <0> d           0.023  -0.690   1.185  0.00  0.00     0.021 A 
ATOM      8  C8  <0> d           0.055  -3.117   2.218  0.00  0.00    -0.021 A 
ATOM      9  C9  <0> d           0.067  -4.294   1.577  0.00  0.00     0.150 A 
ATOM     10  O1  <0> d           0.058  -4.097   0.247  0.00  0.00    -0.321 OA
ENDROOT
BRANCH   8  11
ATOM     11  C10 <0> d           0.059  -2.899   3.709  0.00  0.00     0.074 C 
BRANCH  11  12
ATOM     12  C11 <0> d          -1.378  -2.719   4.202  0.00  0.00     0.183 C 
ATOM     13  C12 <0> d          -1.385  -2.622   5.729  0.00  0.00     0.040 C 
BRANCH  12  14
ATOM     14  N1  <0> d          -1.942  -1.489   3.631  0.00  0.00    -0.075 N 
ATOM     15  H14 <0> d          -1.386  -0.698   3.920  0.00  0.00     0.274 HD
ATOM     16  H15 <0> d          -1.938  -1.553   2.624  0.00  0.00     0.274 HD
ATOM     17  H16 <0> d          -2.890  -1.371   3.956  0.00  0.00     0.274 HD
ENDBRANCH  12  14
ENDBRANCH  11  12
ENDBRANCH   8  11
TORSDOF 3
ENDMDL
MODEL ZINC83301242
REMARK  4 active torsions:
REMARK  status: ('A' for Active; 'I' for Inactive)
REMARK    1  A    between atoms: C2_2  and  C4_4 
REMARK    2  A    between atoms: C4_4  and  C5_5 
REMARK    3  A    between atoms: C4_4  and  N3_16 
REMARK    4  A    between atoms: C7_8  and  C8_10 
ROOT
ATOM      1  C5  <0> d          -2.125  -0.137  -1.266  0.00  0.00     0.103 A 
ATOM      2  C6  <0> d          -2.322  -0.921  -2.343  0.00  0.00     0.154 A 
ATOM      3  N1  <0> d          -2.972  -0.196  -3.265  0.00  0.00    -0.234 NA
ATOM      4  C7  <0> d          -3.179   1.007  -2.784  0.00  0.00     0.179 A 
ATOM      5  O1  <0> d          -2.665   1.065  -1.542  0.00  0.00    -0.292 OA
ENDROOT
BRANCH   1   6
ATOM      6  C4  <0> d          -1.433  -0.534   0.013  0.00  0.00     0.245 C 
BRANCH   6   7
ATOM      7  C2  <0> d           0.002  -0.004   0.002  0.00  0.00     0.014 C 
ATOM      8  C1  <0> d          -0.019   1.526   0.010  0.00  0.00     0.012 C 
ATOM      9  C3  <0> d           0.742  -0.511   1.242  0.00  0.00     0.012 C 
ENDBRANCH   6   7
BRANCH   6  10
ATOM     10  N3  <0> d          -2.157   0.036   1.157  0.00  0.00    -0.069 N 
ATOM     11  H14 <0> d          -3.103  -0.313   1.165  0.00  0.00     0.275 HD
ATOM     12  H15 <0> d          -1.694  -0.229   2.014  0.00  0.00     0.275 HD
ATOM     13  H16 <0> d          -2.170   1.042   1.080  0.00  0.00     0.275 HD
ENDBRANCH   6  10
ENDBRANCH   1   6
BRANCH   4  14
ATOM     14  C8  <0> d          -3.865   2.112  -3.487  0.00  0.00     0.020 A 
ATOM     15  C12 <0> d          -4.368   1.938  -4.781  0.00  0.00     0.035 A 
ATOM     16  C11 <0> d          -5.007   2.994  -5.398  0.00  0.00     0.117 A 
ATOM     17  N2  <0> d          -5.136   4.157  -4.788  0.00  0.00    -0.273 NA
ATOM     18  C10 <0> d          -4.672   4.365  -3.571  0.00  0.00     0.117 A 
ATOM     19  C9  <0> d          -4.025   3.362  -2.878  0.00  0.00     0.035 A 
ENDBRANCH   4  14
TORSDOF 4
ENDMDL
MODEL ZINC83317979
REMARK  4 active torsions:
REMARK  status: ('A' for Active; 'I' for Inactive)
REMARK    1  A    between atoms: O1_2  and  C2_3 
REMARK    2  A    between atoms: C5_6  and  C8_10 
REMARK    3  A    between atoms: N1_11  and  N2_12 
REMARK       I    between atoms: N2_12  and  C9_13 
REMARK    4  A    between atoms: C9_13  and  C10_15 
ROOT
ATOM      1  N2  <0> d           4.523  -2.370  -3.210  0.00  0.00    -0.243 N 
ATOM      2  C9  <0> d           5.867  -2.476  -3.233  0.00  0.00     0.274 C 
ATOM      3  O2  <0> d           6.430  -2.847  -4.247  0.00  0.00    -0.266 OA
ATOM      4  H8  <0> d           4.074  -2.075  -2.402  0.00  0.00     0.192 HD
ENDROOT
BRANCH   1   5
ATOM      5  N1  <0> d           3.775  -2.686  -4.351  0.00  0.00    -0.183 NA
ATOM      6  C8  <0> d           2.497  -2.464  -4.371  0.00  0.00     0.150 C 
BRANCH   6   7
ATOM      7  C5  <0> d           1.917  -1.417  -3.510  0.00  0.00    -0.014 A 
ATOM      8  C4  <0> d           2.745  -0.464  -2.912  0.00  0.00     0.035 A 
ATOM      9  C3  <0> d           2.198   0.514  -2.108  0.00  0.00     0.046 A 
ATOM     10  C2  <0> d           0.826   0.552  -1.893  0.00  0.00     0.102 A 
ATOM     11 Br2  <0> d           3.317   1.804  -1.297  0.00  0.00    -0.048 Br
ATOM     12  C7  <0> d          -0.000  -0.397  -2.482  0.00  0.00     0.046 A 
ATOM     13  C6  <0> d           0.537  -1.375  -3.291  0.00  0.00     0.035 A 
ATOM     14 Br1  <0> d          -1.866  -0.342  -2.179  0.00  0.00    -0.048 Br
BRANCH  10  15
ATOM     15  O1  <0> d           0.291   1.518  -1.099  0.00  0.00    -0.353 OA
ATOM     16  C1  <0> d           0.179   1.223   0.294  0.00  0.00     0.210 C 
ENDBRANCH  10  15
ENDBRANCH   6   7
ENDBRANCH   1   5
BRANCH   2  17
ATOM     17  C10 <0> d           6.651  -2.145  -2.036  0.00  0.00     0.061 A 
ATOM     18  C13 <0> d           8.117  -2.208  -1.897  0.00  0.00     0.008 A 
ATOM     19  C12 <0> d           8.397  -1.797  -0.583  0.00  0.00     0.043 A 
ATOM     20  C14 <0> d           9.156  -2.562  -2.753  0.00  0.00     0.015 A 
ATOM     21  N3  <0> d           7.192  -1.518   0.028  0.00  0.00    -0.364 N 
ATOM     22  C17 <0> d           9.717  -1.749  -0.150  0.00  0.00     0.030 A 
ATOM     23  C11 <0> d           6.166  -1.725  -0.833  0.00  0.00     0.106 A 
ATOM     24  H1  <0> d           7.093  -1.217   0.945  0.00  0.00     0.165 HD
ATOM     25  C16 <0> d          10.735  -2.110  -1.006  0.00  0.00     0.002 A 
ATOM     26  C15 <0> d          10.458  -2.511  -2.304  0.00  0.00     0.001 A 
ENDBRANCH   2  17
TORSDOF 4
ENDMDL
MODEL ZINC83320971
REMARK  5 active torsions:
REMARK  status: ('A' for Active; 'I' for Inactive)
REMARK    1  A    between atoms: C2_2  and  C5_5 
REMARK    2  A    between atoms: C7_8  and  C9_12 
REMARK    3  A    between atoms: C9_12  and  C10_14 
REMARK    4  A    between atoms: C10_14  and  C11_15 
REMARK    5  A    between atoms: C11_15  and  N3_16 
ROOT
ATOM      1  C5  <0> d           0.707  -0.490  -1.238  0.00  0.00     0.114 A 
ATOM      2  N1  <0> d           1.179   0.395  -2.077  0.00  0.00    -0.245 NA
ATOM      3  C6  <0> d           1.813   0.050  -3.192  0.00  0.00     0.139 A 
ATOM      4  C7  <0> d           1.989  -1.304  -3.489  0.00  0.00     0.095 A 
ATOM      5  C8  <0> d           1.453  -2.284  -2.534  0.00  0.00     0.262 A 
ATOM      6  N2  <0> d           0.830  -1.814  -1.431  0.00  0.00    -0.310 N 
ATOM      7  O1  <0> d           1.570  -3.481  -2.729  0.00  0.00    -0.267 OA
ATOM      8  H18 <0> d           0.468  -2.434  -0.779  0.00  0.00     0.170 HD
ENDROOT
BRANCH   4   9
ATOM      9  C9  <0> d           2.681  -1.729  -4.706  0.00  0.00     0.168 C 
ATOM     10  O2  <0> d           3.114  -0.900  -5.479  0.00  0.00    -0.292 OA
BRANCH   9  11
ATOM     11  C10 <0> d           2.855  -3.197  -4.999  0.00  0.00     0.111 C 
BRANCH  11  12
ATOM     12  C11 <0> d           3.606  -3.367  -6.321  0.00  0.00     0.237 C 
BRANCH  12  13
ATOM     13  N3  <0> d           3.776  -4.798  -6.607  0.00  0.00    -0.079 N 
ATOM     14  H15 <0> d           4.304  -5.229  -5.863  0.00  0.00     0.274 HD
ATOM     15  H16 <0> d           2.870  -5.237  -6.675  0.00  0.00     0.274 HD
ATOM     16  H17 <0> d           4.271  -4.910  -7.479  0.00  0.00     0.274 HD
ENDBRANCH  12  13
ENDBRANCH  11  12
ENDBRANCH   9  11
ENDBRANCH   4   9
BRANCH   1  17
ATOM     17  C2  <0> d           0.002  -0.004   0.002  0.00  0.00     0.009 C 
ATOM     18  C1  <0> d          -0.019   1.526   0.010  0.00  0.00     0.023 C 
ATOM     19  C3  <0> d           0.742  -0.511   1.242  0.00  0.00     0.023 C 
ATOM     20  C4  <0> d          -1.433  -0.534   0.013  0.00  0.00     0.023 C 
ENDBRANCH   1  17
TORSDOF 5
ENDMDL
MODEL ZINC83347421
REMARK  2 active torsions:
REMARK  status: ('A' for Active; 'I' for Inactive)
REMARK    1  A    between atoms: C3_3  and  C9_12 
REMARK    2  A    between atoms: C4_5  and  C5_7 
ROOT
ATOM      1  C1  <0> d          -0.018   1.503   0.010  0.00  0.00     0.072 C 
ATOM      2  C2  <0> d           0.002  -0.004   0.002  0.00  0.00     0.055 A 
ATOM      3  C3  <0> d           0.006  -0.732  -1.183  0.00  0.00     0.107 A 
ATOM      4  S1  <0> d           0.033  -2.398  -0.540  0.00  0.00    -0.063 SA
ATOM      5  C4  <0> d           0.036  -2.015   1.099  0.00  0.00     0.105 A 
ATOM      6  N1  <0> d           0.022  -0.701   1.109  0.00  0.00    -0.247 NA
ENDROOT
BRANCH   5   7
ATOM      7  C5  <0> d           0.055  -2.956   2.276  0.00  0.00     0.180 C 
ATOM      8  O1  <0> d           0.974  -4.034   2.037  0.00  0.00    -0.379 OA
ATOM      9  C8  <0> d           0.452  -5.251   2.587  0.00  0.00     0.168 C 
ATOM     10  C7  <0> d          -0.931  -4.934   3.195  0.00  0.00     0.029 C 
ATOM     11  C6  <0> d          -1.329  -3.632   2.446  0.00  0.00     0.041 C 
ENDBRANCH   5   7
BRANCH   3  12
ATOM     12  C9  <0> d          -0.008  -0.264  -2.567  0.00  0.00     0.218 C 
ATOM     13  O2  <0> d          -0.026   0.937  -2.808  0.00  0.00    -0.643 OA
ATOM     14  O3  <0> d          -0.001  -1.073  -3.487  0.00  0.00    -0.643 OA
ENDBRANCH   3  12
TORSDOF 2
ENDMDL
MODEL ZINC83352857
REMARK  8 active torsions:
REMARK  status: ('A' for Active; 'I' for Inactive)
REMARK    1  A    between atoms: C7_7  and  C8_8 
REMARK    2  A    between atoms: C8_8  and  N1_9 
REMARK    3  A    between atoms: N1_9  and  C9_10 
REMARK    4  A    between atoms: C9_10  and  C10_11 
REMARK    5  A    between atoms: C10_11  and  O1_12 
REMARK    6  A    between atoms: O1_12  and  C11_13 
REMARK    7  A    between atoms: C11_13  and  C12_14 
REMARK    8  A    between atoms: C12_14  and  O2_15 
ROOT
ATOM      1  N1  <0> d          -1.359   0.269   2.943  0.00  0.00    -0.069 N 
ATOM      2  H9  <0> d          -1.849   0.811   2.247  0.00  0.00     0.277 HD
ATOM      3  H22 <0> d          -1.821  -0.620   3.063  0.00  0.00     0.277 HD
ENDROOT
BRANCH   1   4
ATOM      4  C8  <0> d           0.025   0.045   2.505  0.00  0.00     0.272 C 
BRANCH   4   5
ATOM      5  C7  <0> d           0.023  -0.702   1.195  0.00  0.00    -0.021 A 
ATOM      6  C2  <0> d           0.002  -0.004   0.002  0.00  0.00    -0.054 A 
ATOM      7  C1  <0> d          -0.018   1.503   0.010  0.00  0.00     0.049 C 
ATOM      8  C3  <0> d           0.006  -0.689  -1.199  0.00  0.00     0.007 A 
ATOM      9  C4  <0> d           0.025  -2.071  -1.206  0.00  0.00     0.001 A 
ATOM     10  C5  <0> d           0.040  -2.768  -0.013  0.00  0.00     0.007 A 
ATOM     11  C6  <0> d           0.037  -2.084   1.188  0.00  0.00    -0.054 A 
ATOM     12  C13 <0> d           0.054  -2.844   2.489  0.00  0.00     0.049 C 
ENDBRANCH   4   5
ENDBRANCH   1   4
BRANCH   1  13
ATOM     13  C9  <0> d          -1.357   0.996   4.219  0.00  0.00     0.258 C 
BRANCH  13  14
ATOM     14  C10 <0> d          -2.798   1.229   4.676  0.00  0.00     0.195 C 
BRANCH  14  15
ATOM     15  O1  <0> d          -3.417  -0.028   4.958  0.00  0.00    -0.387 OA
BRANCH  15  16
ATOM     16  C11 <0> d          -4.774   0.078   5.395  0.00  0.00     0.193 C 
BRANCH  16  17
ATOM     17  C12 <0> d          -5.333  -1.320   5.667  0.00  0.00     0.190 C 
BRANCH  17  18
ATOM     18  O2  <0> d          -4.628  -1.910   6.761  0.00  0.00    -0.399 OA
ATOM     19  H18 <0> d          -4.930  -2.800   6.989  0.00  0.00     0.209 HD
ENDBRANCH  17  18
ENDBRANCH  16  17
ENDBRANCH  15  16
ENDBRANCH  14  15
ENDBRANCH  13  14
ENDBRANCH   1  13
TORSDOF 8
ENDMDL
MODEL ZINC61858972
REMARK  4 active torsions:
REMARK  status: ('A' for Active; 'I' for Inactive)
REMARK    1  A    between atoms: C5_6  and  N3_8 
REMARK    2  A    between atoms: N3_8  and  C6_9 
REMARK    3  A    between atoms: C6_9  and  C8_11 
REMARK    4  A    between atoms: C8_11  and  O2_13 
ROOT
ATOM      1  N3  <0> d           0.050  -2.679   2.348  0.00  0.00    -0.209 N 
ATOM      2  H7  <0> d           0.047  -2.183   3.181  0.00  0.00     0.178 HD
ENDROOT
BRANCH   1   3
ATOM      3  C5  <0> d           0.035  -2.005   1.140  0.00  0.00     0.723 A 
ATOM      4  N1  <0> d           0.040  -2.698   0.011  0.00  0.00    -0.075 NA
ATOM      5  C4  <0> d           0.025  -2.084  -1.161  0.00  0.00     0.138 A 
ATOM      6  C3  <0> d           0.006  -0.699  -1.198  0.00  0.00     0.047 A 
ATOM      7  C2  <0> d           0.002  -0.004   0.002  0.00  0.00     0.051 A 
ATOM      8  C1  <0> d          -0.018   1.503   0.010  0.00  0.00     0.071 C 
ATOM      9  N2  <0> d           0.022  -0.679   1.139  0.00  0.00    -0.068 NA
ENDBRANCH   1   3
BRANCH   1  10
ATOM     10  C6  <0> d           0.070  -4.144   2.368  0.00  0.00     0.195 C 
ATOM     11  C7  <0> d          -1.360  -4.675   2.256  0.00  0.00     0.043 C 
BRANCH  10  12
ATOM     12  C8  <0> d           0.683  -4.620   3.660  0.00  0.00     0.281 C 
ATOM     13  O1  <0> d           1.064  -3.818   4.480  0.00  0.00    -0.263 OA
BRANCH  12  14
ATOM     14  O2  <0> d           0.806  -5.935   3.901  0.00  0.00    -0.325 OA
ATOM     15  C9  <0> d           1.396  -6.315   5.145  0.00  0.00     0.213 C 
ENDBRANCH  12  14
ENDBRANCH  10  12
ENDBRANCH   1  10
TORSDOF 4
ENDMDL
MODEL ZINC83363120
REMARK  4 active torsions:
REMARK  status: ('A' for Active; 'I' for Inactive)
REMARK    1  A    between atoms: C4_5  and  C6_7 
REMARK    2  A    between atoms: C6_7  and  N2_8 
REMARK    3  A    between atoms: N2_8  and  C7_9 
REMARK    4  A    between atoms: C9_12  and  N4_14 
ROOT
ATOM      1  N2  <0> d           1.368  -2.645  -1.403  0.00  0.00    -0.363 N 
ATOM      2  H7  <0> d           1.411  -2.009  -2.134  0.00  0.00     0.162 HD
ENDROOT
BRANCH   1   3
ATOM      3  C6  <0> d           1.250  -2.168  -0.023  0.00  0.00     0.181 C 
BRANCH   3   4
ATOM      4  C4  <0> d           1.218  -0.661  -0.014  0.00  0.00     0.051 A 
ATOM      5  N1  <0> d           2.350   0.015  -0.021  0.00  0.00    -0.264 NA
ATOM      6  C3  <0> d           2.370   1.334  -0.013  0.00  0.00     0.117 A 
ATOM      7  C2  <0> d           1.194   2.059   0.002  0.00  0.00     0.019 A 
ATOM      8  C1  <0> d          -0.017   1.382   0.010  0.00  0.00     0.003 A 
ATOM      9  C5  <0> d           0.002  -0.004   0.002  0.00  0.00     0.029 A 
ENDBRANCH   3   4
ENDBRANCH   1   3
BRANCH   1  10
ATOM     10  C7  <0> d           1.417  -4.005  -1.664  0.00  0.00     0.168 A 
ATOM     11  S1  <0> d           1.548  -4.781  -3.152  0.00  0.00    -0.027 SA
ATOM     12  C9  <0> d           1.540  -6.464  -2.555  0.00  0.00     0.164 A 
ATOM     13  C8  <0> d           1.425  -6.259  -1.222  0.00  0.00     0.163 A 
ATOM     14  N3  <0> d           1.365  -5.005  -0.809  0.00  0.00    -0.234 NA
BRANCH  12  15
ATOM     15  N4  <0> d           1.629  -7.734  -3.311  0.00  0.00    -0.107 N 
ATOM     16  O1  <0> d           1.602  -8.790  -2.724  0.00  0.00    -0.531 OA
ATOM     17  O2  <0> d           1.729  -7.715  -4.516  0.00  0.00    -0.531 OA
ENDBRANCH  12  15
ENDBRANCH   1  10
TORSDOF 4
ENDMDL
MODEL ZINC83430832
REMARK  3 active torsions:
REMARK  status: ('A' for Active; 'I' for Inactive)
REMARK    1  A    between atoms: N2_7  and  C6_8 
REMARK    2  A    between atoms: C6_8  and  C7_9 
REMARK    3  A    between atoms: C7_9  and  C8_10 
ROOT
ATOM      1  C6  <0> d           0.022  -0.085   2.422  0.00  0.00     0.280 C 
ENDROOT
BRANCH   1   2
ATOM      2  N2  <0> d           0.714  -0.491   1.192  0.00  0.00     0.096 N 
ATOM      3  C2  <0> d           0.002  -0.004   0.002  0.00  0.00     0.244 C 
ATOM      4  C1  <0> d          -0.019   1.526   0.010  0.00  0.00     0.045 C 
ATOM      5  C3  <0> d           0.719  -0.498  -1.256  0.00  0.00     0.268 C 
ATOM      6  N1  <0> d           2.103  -0.005  -1.257  0.00  0.00    -0.068 N 
ATOM      7  C4  <0> d           2.808  -0.520  -0.076  0.00  0.00     0.210 C 
ATOM      8  H9  <0> d           2.572  -0.321  -2.092  0.00  0.00     0.277 HD
ATOM      9  H23 <0> d           2.100   1.004  -1.233  0.00  0.00     0.277 HD
ATOM     10  C5  <0> d           2.109  -0.026   1.192  0.00  0.00     0.305 C 
ATOM     11  C15 <0> d           4.255  -0.021  -0.087  0.00  0.00     0.042 C 
ENDBRANCH   1   2
BRANCH   1  12
ATOM     12  C7  <0> d           0.641  -0.810   3.619  0.00  0.00     0.108 C 
BRANCH  12  13
ATOM     13  C8  <0> d          -0.069  -0.393   4.881  0.00  0.00     0.106 A 
ATOM     14  N4  <0> d          -0.215   0.836   5.283  0.00  0.00    -0.233 NA
ATOM     15  C14 <0> d          -0.903   0.855   6.453  0.00  0.00     0.085 A 
ATOM     16  C9  <0> d          -1.185  -0.481   6.784  0.00  0.00     0.062 A 
ATOM     17  C13 <0> d          -1.332   1.879   7.302  0.00  0.00     0.034 A 
ATOM     18  N3  <0> d          -0.644  -1.247   5.770  0.00  0.00    -0.343 N 
ATOM     19  C10 <0> d          -1.885  -0.772   7.947  0.00  0.00     0.032 A 
ATOM     20  H3  <0> d          -0.670  -2.214   5.704  0.00  0.00     0.167 HD
ATOM     21  C11 <0> d          -2.297   0.254   8.770  0.00  0.00     0.002 A 
ATOM     22  C12 <0> d          -2.019   1.573   8.443  0.00  0.00     0.002 A 
ENDBRANCH  12  13
ENDBRANCH   1  12
TORSDOF 3
ENDMDL
MODEL ZINC83492527
REMARK  8 active torsions:
REMARK  status: ('A' for Active; 'I' for Inactive)
REMARK    1  A    between atoms: C2_2  and  C3_3 
REMARK    2  A    between atoms: C3_3  and  C5_5 
REMARK    3  A    between atoms: C5_5  and  C6_6 
REMARK    4  A    between atoms: C5_5  and  N2_19 
REMARK       I    between atoms: C6_6  and  N1_8 
REMARK    5  A    between atoms: N1_8  and  C7_9 
REMARK    6  A    between atoms: C7_9  and  C8_10 
REMARK    7  A    between atoms: C11_13  and  O3_18 
REMARK    8  A    between atoms: C13_15  and  O2_16 
ROOT
ATOM      1  C6  <0> d           1.384  -2.537   2.519  0.00  0.00     0.248 C 
ATOM      2  O1  <0> d           0.762  -2.839   3.516  0.00  0.00    -0.271 OA
ATOM      3  N1  <0> d           2.727  -2.647   2.504  0.00  0.00    -0.355 N 
ATOM      4  H11 <0> d           3.225  -2.405   1.708  0.00  0.00     0.162 HD
ENDROOT
BRANCH   3   5
ATOM      5  C7  <0> d           3.436  -3.132   3.691  0.00  0.00     0.164 C 
BRANCH   5   6
ATOM      6  C8  <0> d           4.917  -3.161   3.415  0.00  0.00    -0.007 A 
ATOM      7  C13 <0> d           5.660  -1.992   3.492  0.00  0.00     0.078 A 
ATOM      8  C12 <0> d           7.024  -2.020   3.244  0.00  0.00     0.073 A 
ATOM      9  C11 <0> d           7.640  -3.216   2.907  0.00  0.00     0.068 A 
ATOM     10  C10 <0> d           6.891  -4.382   2.826  0.00  0.00     0.037 A 
ATOM     11  C9  <0> d           5.534  -4.352   3.080  0.00  0.00     0.014 A 
BRANCH   7  12
ATOM     12  O2  <0> d           5.052  -0.821   3.816  0.00  0.00    -0.355 OA
ATOM     13  C14 <0> d           5.878   0.344   3.877  0.00  0.00     0.210 C 
ENDBRANCH   7  12
BRANCH   9  14
ATOM     14  O3  <0> d           8.975  -3.246   2.658  0.00  0.00    -0.361 OA
ATOM     15  H20 <0> d           9.206  -3.095   1.731  0.00  0.00     0.217 HD
ENDBRANCH   9  14
ENDBRANCH   5   6
ENDBRANCH   3   5
BRANCH   1  16
ATOM     16  C5  <0> d           0.655  -2.037   1.299  0.00  0.00     0.278 C 
BRANCH  16  17
ATOM     17  C3  <0> d           0.742  -0.511   1.242  0.00  0.00     0.021 C 
ATOM     18  C4  <0> d           2.210  -0.086   1.169  0.00  0.00     0.012 C 
BRANCH  17  19
ATOM     19  C2  <0> d           0.002  -0.004   0.002  0.00  0.00     0.002 C 
ATOM     20  C1  <0> d          -0.019   1.526   0.010  0.00  0.00     0.005 C 
ENDBRANCH  17  19
ENDBRANCH  16  17
BRANCH  16  21
ATOM     21  N2  <0> d          -0.754  -2.446   1.369  0.00  0.00    -0.066 N 
ATOM     22  H21 <0> d          -0.811  -3.452   1.406  0.00  0.00     0.275 HD
ATOM     23  H22 <0> d          -1.177  -2.054   2.197  0.00  0.00     0.275 HD
ATOM     24  H23 <0> d          -1.242  -2.111   0.551  0.00  0.00     0.275 HD
ENDBRANCH  16  21
ENDBRANCH   1  16
TORSDOF 8
ENDMDL
MODEL ZINC08561658
REMARK  6 active torsions:
REMARK  status: ('A' for Active; 'I' for Inactive)
REMARK    1  A    between atoms: C3_3  and  C16_24 
REMARK    2  A    between atoms: C5_7  and  C6_8 
REMARK    3  A    between atoms: C6_8  and  C7_10 
REMARK    4  A    between atoms: C7_10  and  O2_11 
REMARK    5  A    between atoms: O2_11  and  C8_12 
REMARK    6  A    between atoms: C11_15  and  N2_18 
ROOT
ATOM      1  C6  <0> d           0.268   2.499   1.326  0.00  0.00     0.200 C 
ATOM      2  O1  <0> d          -0.523   3.384   1.580  0.00  0.00    -0.288 OA
ENDROOT
BRANCH   1   3
ATOM      3  C5  <0> d           1.504   2.810   0.708  0.00  0.00     0.088 A 
ATOM      4  C2  <0> d           1.932   4.068   0.345  0.00  0.00    -0.016 A 
ATOM      5  C1  <0> d           1.181   5.361   0.529  0.00  0.00     0.052 C 
ATOM      6  C3  <0> d           3.214   3.912  -0.230  0.00  0.00     0.040 A 
ATOM      7  C4  <0> d           3.513   2.558  -0.202  0.00  0.00     0.020 A 
ATOM      8  N1  <0> d           2.486   1.905   0.361  0.00  0.00    -0.356 N 
ATOM      9  C15 <0> d           4.780   1.926  -0.718  0.00  0.00     0.069 C 
ATOM     10  H1  <0> d           2.441   0.946   0.501  0.00  0.00     0.166 HD
BRANCH   6  11
ATOM     11  C16 <0> d           4.066   4.981  -0.763  0.00  0.00     0.158 C 
ATOM     12  O3  <0> d           4.024   5.259  -1.943  0.00  0.00    -0.293 OA
ATOM     13  C17 <0> d           4.992   5.735   0.157  0.00  0.00     0.097 C 
ENDBRANCH   6  11
ENDBRANCH   1   3
BRANCH   1  14
ATOM     14  C7  <0> d          -0.068   1.069   1.661  0.00  0.00     0.261 C 
BRANCH  14  15
ATOM     15  O2  <0> d          -1.358   1.013   2.272  0.00  0.00    -0.344 OA
BRANCH  15  16
ATOM     16  C8  <0> d          -1.815  -0.213   2.639  0.00  0.00     0.069 A 
ATOM     17  C13 <0> d          -3.061  -0.339   3.237  0.00  0.00     0.039 A 
ATOM     18  C12 <0> d          -3.525  -1.585   3.609  0.00  0.00     0.034 A 
ATOM     19  C11 <0> d          -2.746  -2.712   3.384  0.00  0.00     0.061 A 
ATOM     20  C10 <0> d          -1.500  -2.585   2.785  0.00  0.00     0.034 A 
ATOM     21  C9  <0> d          -1.039  -1.340   2.409  0.00  0.00     0.039 A 
BRANCH  19  22
ATOM     22  N2  <0> d          -3.218  -3.978   3.763  0.00  0.00    -0.206 N 
ATOM     23  N5  <0> d          -4.443  -4.283   4.381  0.00  0.00    -0.040 NA
ATOM     24  N4  <0> d          -4.467  -5.562   4.545  0.00  0.00    -0.023 NA
ATOM     25  N3  <0> d          -3.381  -6.085   4.101  0.00  0.00    -0.122 NA
ATOM     26  C14 <0> d          -2.590  -5.165   3.616  0.00  0.00     0.262 A 
ENDBRANCH  19  22
ENDBRANCH  15  16
ENDBRANCH  14  15
ENDBRANCH   1  14
TORSDOF 6
ENDMDL
MODEL ZINC83545983
REMARK  5 active torsions:
REMARK  status: ('A' for Active; 'I' for Inactive)
REMARK    1  A    between atoms: C2_2  and  C3_3 
REMARK    2  A    between atoms: N2_8  and  C7_9 
REMARK    3  A    between atoms: C10_12  and  N3_15 
REMARK    4  A    between atoms: N3_15  and  C13_16 
REMARK    5  A    between atoms: N3_15  and  C15_18 
ROOT
ATOM      1  C7  <0> d          -0.849   0.811  -1.753  0.00  0.00     0.030 A 
ATOM      2  C8  <0> d           0.356   1.491  -1.620  0.00  0.00     0.031 A 
ATOM      3  C9  <0> d           0.754   2.384  -2.595  0.00  0.00     0.039 A 
ATOM      4  C10 <0> d          -0.045   2.602  -3.703  0.00  0.00     0.134 A 
ATOM      5  C11 <0> d          -1.244   1.928  -3.838  0.00  0.00     0.039 A 
ATOM      6  C12 <0> d          -1.646   1.029  -2.869  0.00  0.00     0.031 A 
ENDROOT
BRANCH   1   7
ATOM      7  N2  <0> d          -1.254  -0.093  -0.768  0.00  0.00    -0.372 N 
ATOM      8  C3  <0> d          -2.228   0.298   0.263  0.00  0.00     0.110 C 
ATOM      9  C4  <0> d          -1.663  -0.077   1.637  0.00  0.00     0.257 C 
ATOM     10  N1  <0> d          -1.309  -1.502   1.647  0.00  0.00    -0.068 N 
ATOM     11  C5  <0> d          -0.223  -1.755   0.691  0.00  0.00     0.199 C 
ATOM     12  H10 <0> d          -1.009  -1.767   2.573  0.00  0.00     0.277 HD
ATOM     13  H30 <0> d          -2.117  -2.050   1.389  0.00  0.00     0.277 HD
ATOM     14  C6  <0> d          -0.717  -1.462  -0.730  0.00  0.00     0.156 C 
ATOM     15  C17 <0> d           0.212  -3.218   0.789  0.00  0.00     0.041 C 
BRANCH   8  16
ATOM     16  C2  <0> d          -2.465   1.808   0.200  0.00  0.00     0.022 C 
ATOM     17  C1  <0> d          -3.524   2.202   1.232  0.00  0.00     0.007 C 
ENDBRANCH   8  16
ENDBRANCH   1   7
BRANCH   4  18
ATOM     18  N3  <0> d           0.361   3.508  -4.688  0.00  0.00    -0.042 N 
ATOM     19  H31 <0> d           1.252   3.906  -4.432  0.00  0.00     0.286 HD
BRANCH  18  20
ATOM     20  C13 <0> d           0.489   2.808  -5.973  0.00  0.00     0.237 C 
ATOM     21  C14 <0> d           1.628   1.790  -5.888  0.00  0.00     0.035 C 
ENDBRANCH  18  20
BRANCH  18  22
ATOM     22  C15 <0> d          -0.638   4.578  -4.811  0.00  0.00     0.237 C 
ATOM     23  C16 <0> d          -0.666   5.399  -3.520  0.00  0.00     0.035 C 
ENDBRANCH  18  22
ENDBRANCH   4  18
TORSDOF 5
ENDMDL
MODEL ZINC83593368
REMARK  3 active torsions:
REMARK  status: ('A' for Active; 'I' for Inactive)
REMARK    1  A    between atoms: O1_2  and  C2_3 
REMARK    2  A    between atoms: C7_8  and  O2_9 
REMARK    3  A    between atoms: C10_13  and  C11_14 
ROOT
ATOM      1  C2  <0> d           0.606  -0.608  -1.056  0.00  0.00     0.101 A 
ATOM      2  C3  <0> d           1.173   0.157  -2.063  0.00  0.00     0.040 A 
ATOM      3  C4  <0> d           1.787  -0.461  -3.134  0.00  0.00     0.013 A 
ATOM      4  C5  <0> d           1.840  -1.845  -3.213  0.00  0.00    -0.013 A 
ATOM      5  C6  <0> d           1.275  -2.611  -2.215  0.00  0.00    -0.012 A 
ATOM      6  C7  <0> d           0.663  -1.994  -1.131  0.00  0.00     0.105 A 
ATOM      7  C8  <0> d           1.304  -4.117  -2.268  0.00  0.00     0.069 C 
ATOM      8  C9  <0> d           2.348  -4.579  -3.285  0.00  0.00     0.238 C 
ATOM      9  N1  <0> d           2.114  -3.870  -4.552  0.00  0.00    -0.061 N 
ATOM     10  C10 <0> d           2.524  -2.471  -4.400  0.00  0.00     0.271 C 
ATOM     11  H12 <0> d           2.655  -4.303  -5.286  0.00  0.00     0.278 HD
ATOM     12  H17 <0> d           1.133  -3.911  -4.785  0.00  0.00     0.278 HD
ENDROOT
BRANCH  10  13
ATOM     13  C11 <0> d           2.157  -1.707  -5.645  0.00  0.00     0.069 A 
ATOM     14  N2  <0> d           1.155  -2.125  -6.395  0.00  0.00    -0.263 NA
ATOM     15  C15 <0> d           0.795  -1.485  -7.490  0.00  0.00     0.117 A 
ATOM     16  C14 <0> d           1.468  -0.350  -7.900  0.00  0.00     0.019 A 
ATOM     17  C13 <0> d           2.531   0.116  -7.140  0.00  0.00     0.003 A 
ATOM     18  C12 <0> d           2.877  -0.580  -5.992  0.00  0.00     0.029 A 
ENDBRANCH  10  13
BRANCH   6  19
ATOM     19  O2  <0> d           0.113  -2.750  -0.143  0.00  0.00    -0.357 OA
ATOM     20  H7  <0> d          -0.815  -2.976  -0.291  0.00  0.00     0.217 HD
ENDBRANCH   6  19
BRANCH   1  21
ATOM     21  O1  <0> d           0.002  -0.004   0.002  0.00  0.00    -0.353 OA
ATOM     22  C1  <0> d          -0.017   1.425   0.010  0.00  0.00     0.210 C 
ENDBRANCH   1  21
TORSDOF 3
ENDMDL
MODEL ZINC00391255
REMARK  6 active torsions:
REMARK  status: ('A' for Active; 'I' for Inactive)
REMARK    1  A    between atoms: S1_2  and  C2_3 
REMARK    2  A    between atoms: C3_4  and  O5_13 
REMARK    3  A    between atoms: C4_5  and  O4_12 
REMARK    4  A    between atoms: C5_6  and  O3_11 
REMARK    5  A    between atoms: C6_7  and  C7_9 
REMARK    6  A    between atoms: C7_9  and  O2_10 
ROOT
ATOM      1  C2  <0> d          -1.331  -0.861   2.386  0.00  0.00     0.214 C 
ATOM      2  C3  <0> d          -1.317  -2.384   2.224  0.00  0.00     0.188 C 
ATOM      3  C4  <0> d          -0.661  -2.740   0.887  0.00  0.00     0.181 C 
ATOM      4  C5  <0> d          -1.423  -2.043  -0.244  0.00  0.00     0.180 C 
ATOM      5  C6  <0> d          -1.433  -0.534   0.013  0.00  0.00     0.178 C 
ATOM      6  O1  <0> d          -2.028  -0.273   1.286  0.00  0.00    -0.363 OA
ENDROOT
BRANCH   5   7
ATOM      7  C7  <0> d           0.002  -0.004   0.002  0.00  0.00     0.198 C 
BRANCH   7   8
ATOM      8  O2  <0> d          -0.016   1.422   0.090  0.00  0.00    -0.398 OA
ATOM      9  H11 <0> d           0.862   1.827   0.088  0.00  0.00     0.209 HD
ENDBRANCH   7   8
ENDBRANCH   5   7
BRANCH   4  10
ATOM     10  O3  <0> d          -2.766  -2.529  -0.287  0.00  0.00    -0.390 OA
ATOM     11  H12 <0> d          -2.834  -3.481  -0.447  0.00  0.00     0.210 HD
ENDBRANCH   4  10
BRANCH   3  12
ATOM     12  O4  <0> d           0.700  -2.304   0.889  0.00  0.00    -0.390 OA
ATOM     13  H13 <0> d           1.239  -2.703   1.586  0.00  0.00     0.210 HD
ENDBRANCH   3  12
BRANCH   1  14
ATOM     14  S1  <0> d          -2.169  -0.426   3.935  0.00  0.00    -0.139 SA
ATOM     15  C1  <0> d          -1.970   1.374   4.051  0.00  0.00     0.092 C 
ENDBRANCH   1  14
BRANCH   2  16
ATOM     16  O5  <0> d          -0.571  -2.970   3.293  0.00  0.00    -0.389 OA
ATOM     17  H14 <0> d          -0.927  -2.781   4.172  0.00  0.00     0.210 HD
ENDBRANCH   2  16
TORSDOF 6
ENDMDL
MODEL ZINC83667698
REMARK  5 active torsions:
REMARK  status: ('A' for Active; 'I' for Inactive)
REMARK    1  A    between atoms: C2_2  and  C4_4 
REMARK    2  A    between atoms: C10_10  and  C13_14 
REMARK    3  A    between atoms: C13_14  and  C14_15 
REMARK    4  A    between atoms: C14_15  and  C15_16 
REMARK    5  A    between atoms: C14_15  and  O3_19 
ROOT
ATOM      1  C4  <0> d           0.707  -0.490  -1.238  0.00  0.00    -0.054 A 
ATOM      2  C5  <0> d           0.223  -0.152  -2.488  0.00  0.00     0.008 A 
ATOM      3  C6  <0> d           0.872  -0.600  -3.621  0.00  0.00     0.008 A 
ATOM      4  C7  <0> d           2.007  -1.388  -3.510  0.00  0.00    -0.048 A 
ATOM      5  C8  <0> d           2.493  -1.724  -2.264  0.00  0.00    -0.021 A 
ATOM      6  C9  <0> d           1.842  -1.269  -1.127  0.00  0.00     0.017 A 
ATOM      7  C10 <0> d           3.728  -2.569  -2.097  0.00  0.00     0.222 C 
ATOM      8  N1  <0> d           4.023  -3.301  -3.333  0.00  0.00    -0.067 N 
ATOM      9  C11 <0> d           4.098  -2.346  -4.449  0.00  0.00     0.237 C 
ATOM     10  C12 <0> d           2.684  -1.861  -4.771  0.00  0.00     0.066 C 
ATOM     11  H13 <0> d           4.906  -3.780  -3.238  0.00  0.00     0.278 HD
ATOM     12  H21 <0> d           3.291  -3.971  -3.511  0.00  0.00     0.278 HD
ENDROOT
BRANCH   7  13
ATOM     13  C13 <0> d           3.505  -3.569  -0.961  0.00  0.00     0.080 C 
BRANCH  13  14
ATOM     14  C14 <0> d           4.798  -4.345  -0.703  0.00  0.00     0.221 C 
BRANCH  14  15
ATOM     15  C15 <0> d           4.545  -5.413   0.330  0.00  0.00     0.203 C 
ATOM     16  O1  <0> d           3.785  -6.333   0.082  0.00  0.00    -0.646 OA
ATOM     17  O2  <0> d           5.102  -5.356   1.413  0.00  0.00    -0.646 OA
ENDBRANCH  14  15
BRANCH  14  18
ATOM     18  O3  <0> d           5.804  -3.450  -0.227  0.00  0.00    -0.385 OA
ATOM     19  H20 <0> d           5.573  -3.000   0.597  0.00  0.00     0.210 HD
ENDBRANCH  14  18
ENDBRANCH  13  14
ENDBRANCH   7  13
BRANCH   1  20
ATOM     20  C2  <0> d           0.002  -0.004   0.002  0.00  0.00     0.010 C 
ATOM     21  C1  <0> d          -0.019   1.526   0.010  0.00  0.00     0.015 C 
ATOM     22  C3  <0> d          -1.433  -0.534   0.013  0.00  0.00     0.015 C 
ENDBRANCH   1  20
TORSDOF 5
ENDMDL
MODEL ZINC83690541
REMARK  7 active torsions:
REMARK  status: ('A' for Active; 'I' for Inactive)
REMARK    1  A    between atoms: C2_2  and  O1_3 
REMARK    2  A    between atoms: O1_3  and  C3_4 
REMARK    3  A    between atoms: C8_9  and  O2_10 
REMARK    4  A    between atoms: C9_11  and  C12_15 
REMARK    5  A    between atoms: C12_15  and  C13_16 
REMARK    6  A    between atoms: C12_15  and  O4_18 
REMARK    7  A    between atoms: C13_16  and  O3_17 
ROOT
ATOM      1  C3  <0> d           0.438  -1.702  -1.663  0.00  0.00     0.102 A 
ATOM      2  C4  <0> d           0.025  -2.530  -0.635  0.00  0.00     0.047 A 
ATOM      3  C5  <0> d           0.251  -3.896  -0.703  0.00  0.00    -0.045 A 
ATOM      4  C6  <0> d           0.892  -4.436  -1.798  0.00  0.00    -0.016 A 
ATOM      5  C7  <0> d           1.305  -3.610  -2.833  0.00  0.00     0.049 A 
ATOM      6  C8  <0> d           1.077  -2.246  -2.773  0.00  0.00     0.099 A 
ATOM      7  C9  <0> d           1.165  -5.914  -1.907  0.00  0.00     0.250 C 
ATOM      8  N1  <0> d           0.306  -6.666  -0.989  0.00  0.00    -0.064 N 
ATOM      9  C10 <0> d           0.469  -6.127   0.370  0.00  0.00     0.237 C 
ATOM     10  C11 <0> d          -0.220  -4.763   0.438  0.00  0.00     0.066 C 
ATOM     11  H11 <0> d          -0.657  -6.575  -1.275  0.00  0.00     0.278 HD
ATOM     12  H20 <0> d           0.571  -7.640  -0.999  0.00  0.00     0.278 HD
ENDROOT
BRANCH   7  13
ATOM     13  C12 <0> d           0.892  -6.373  -3.341  0.00  0.00     0.176 C 
BRANCH  13  14
ATOM     14  C13 <0> d          -0.588  -6.170  -3.669  0.00  0.00     0.198 C 
BRANCH  14  15
ATOM     15  O3  <0> d          -0.818  -6.477  -5.046  0.00  0.00    -0.398 OA
ATOM     16  H18 <0> d          -1.737  -6.370  -5.324  0.00  0.00     0.209 HD
ENDBRANCH  14  15
ENDBRANCH  13  14
BRANCH  13  17
ATOM     17  O4  <0> d           1.224  -7.757  -3.469  0.00  0.00    -0.391 OA
ATOM     18  H19 <0> d           0.719  -8.338  -2.883  0.00  0.00     0.210 HD
ENDBRANCH  13  17
ENDBRANCH   7  13
BRANCH   6  19
ATOM     19  O2  <0> d           1.480  -1.441  -3.792  0.00  0.00    -0.358 OA
ATOM     20  H10 <0> d           2.378  -1.098  -3.691  0.00  0.00     0.217 HD
ENDBRANCH   6  19
BRANCH   1  21
ATOM     21  O1  <0> d           0.215  -0.362  -1.592  0.00  0.00    -0.349 OA
BRANCH  21  22
ATOM     22  C2  <0> d          -0.446   0.125  -0.423  0.00  0.00     0.171 C 
ATOM     23  C1  <0> d          -0.607   1.643  -0.523  0.00  0.00     0.034 C 
ENDBRANCH  21  22
ENDBRANCH   1  21
TORSDOF 7
ENDMDL
MODEL ZINC83706101
REMARK  6 active torsions:
REMARK  status: ('A' for Active; 'I' for Inactive)
REMARK    1  A    between atoms: C2_2  and  C3_3 
REMARK    2  A    between atoms: C2_2  and  N2_19 
REMARK    3  A    between atoms: C7_7  and  C11_13 
REMARK    4  A    between atoms: C8_8  and  O2_12 
REMARK    5  A    between atoms: C9_9  and  O1_10 
REMARK    6  A    between atoms: C11_13  and  C12_14 
ROOT
ATOM      1  C3  <0> d           0.806  -0.425   0.841  0.00  0.00     0.286 C 
ATOM      2  C4  <0> d           0.471  -1.823   1.289  0.00  0.00     0.019 A 
ATOM      3  C5  <0> d           1.451  -2.758   1.550  0.00  0.00    -0.044 A 
ATOM      4  C6  <0> d           1.098  -4.033   1.966  0.00  0.00     0.018 A 
ATOM      5  C7  <0> d          -0.231  -4.377   2.120  0.00  0.00    -0.018 A 
ATOM      6  C8  <0> d          -1.220  -3.444   1.857  0.00  0.00     0.106 A 
ATOM      7  C9  <0> d          -0.867  -2.165   1.442  0.00  0.00     0.110 A 
ATOM      8  C14 <0> d           2.914  -2.436   1.387  0.00  0.00     0.069 C 
ATOM      9  C15 <0> d           3.113  -0.921   1.334  0.00  0.00     0.275 C 
ATOM     10  N1  <0> d           2.183  -0.367   0.338  0.00  0.00     0.095 N 
ATOM     11  H20 <0> d           2.266  -0.848  -0.545  0.00  0.00     0.316 HD
ENDROOT
BRANCH   1  12
ATOM     12  C2  <0> d          -0.156  -0.006  -0.272  0.00  0.00     0.219 C 
ATOM     13  C1  <0> d          -0.105  -1.035  -1.404  0.00  0.00     0.042 C 
BRANCH  12  14
ATOM     14  N2  <0> d           0.237   1.311  -0.790  0.00  0.00    -0.073 N 
ATOM     15  C16 <0> d          -0.725   1.742  -1.813  0.00  0.00     0.267 C 
ATOM     16  H21 <0> d           0.247   1.980  -0.035  0.00  0.00     0.277 HD
ATOM     17  H25 <0> d           1.158   1.251  -1.198  0.00  0.00     0.277 HD
ENDBRANCH  12  14
ENDBRANCH   1  12
BRANCH   7  18
ATOM     18  O1  <0> d          -1.835  -1.246   1.184  0.00  0.00    -0.352 OA
ATOM     19  C10 <0> d          -2.337  -0.503   2.296  0.00  0.00     0.210 C 
ENDBRANCH   7  18
BRANCH   6  20
ATOM     20  O2  <0> d          -2.530  -3.777   2.005  0.00  0.00    -0.357 OA
ATOM     21  H10 <0> d          -2.882  -3.607   2.889  0.00  0.00     0.217 HD
ENDBRANCH   6  20
BRANCH   5  22
ATOM     22  C11 <0> d          -0.603  -5.766   2.573  0.00  0.00     0.068 C 
BRANCH  22  23
ATOM     23  C12 <0> d          -0.921  -5.745   4.046  0.00  0.00    -0.032 C 
ATOM     24  C13 <0> d          -2.073  -6.199   4.474  0.00  0.00     0.007 C 
ENDBRANCH  22  23
ENDBRANCH   5  22
TORSDOF 6
ENDMDL
MODEL ZINC12912343
REMARK  6 active torsions:
REMARK  status: ('A' for Active; 'I' for Inactive)
REMARK    1  A    between atoms: N1_2  and  C2_3 
REMARK    2  A    between atoms: N1_2  and  C7_9 
REMARK    3  A    between atoms: C2_3  and  C3_4 
REMARK    4  A    between atoms: C7_9  and  C8_10 
REMARK       I    between atoms: C8_10  and  N2_12 
REMARK       I    between atoms: N2_12  and  C9_13 
REMARK       I    between atoms: C9_13  and  N3_15 
REMARK    5  A    between atoms: N3_15  and  C10_16 
REMARK    6  A    between atoms: C10_16  and  C11_17 
ROOT
ATOM      1  C8  <0> d          -2.067  -0.116  -1.267  0.00  0.00     0.251 C 
ATOM      2  O1  <0> d          -1.471   0.526  -2.104  0.00  0.00    -0.271 OA
ATOM      3  N2  <0> d          -3.349  -0.476  -1.480  0.00  0.00    -0.278 N 
ATOM      4  C9  <0> d          -3.967  -0.121  -2.623  0.00  0.00     0.323 C 
ATOM      5  O2  <0> d          -3.369   0.523  -3.463  0.00  0.00    -0.247 OA
ATOM      6  N3  <0> d          -5.248  -0.481  -2.836  0.00  0.00    -0.339 N 
ATOM      7  H11 <0> d          -3.826  -0.990  -0.809  0.00  0.00     0.173 HD
ATOM      8  H12 <0> d          -5.726  -0.995  -2.166  0.00  0.00     0.164 HD
ENDROOT
BRANCH   1   9
ATOM      9  C7  <0> d          -1.376  -0.512   0.012  0.00  0.00     0.337 C 
BRANCH   9  10
ATOM     10  N1  <0> d           0.002  -0.004   0.002  0.00  0.00    -0.063 N 
ATOM     11  C1  <0> d          -0.018   1.465   0.010  0.00  0.00     0.270 C 
ATOM     12  H20 <0> d           0.474  -0.330  -0.828  0.00  0.00     0.280 HD
BRANCH  10  13
ATOM     13  C2  <0> d           0.713  -0.491   1.192  0.00  0.00     0.274 C 
BRANCH  13  14
ATOM     14  C3  <0> d           2.158  -0.072   1.120  0.00  0.00    -0.026 A 
ATOM     15  C6  <0> d           2.559   1.111   1.647  0.00  0.00     0.058 A 
ATOM     16  S1  <0> d           4.309   1.097   1.297  0.00  0.00    -0.113 SA
ATOM     17  C5  <0> d           4.387  -0.480   0.463  0.00  0.00     0.050 A 
ATOM     18  C4  <0> d           3.095  -0.886   0.511  0.00  0.00     0.016 A 
ENDBRANCH  13  14
ENDBRANCH  10  13
ENDBRANCH   9  10
ENDBRANCH   1   9
BRANCH   6  19
ATOM     19  C10 <0> d          -5.920  -0.096  -4.080  0.00  0.00     0.162 C 
BRANCH  19  20
ATOM     20  C11 <0> d          -7.334  -0.618  -4.069  0.00  0.00    -0.040 A 
ATOM     21  C16 <0> d          -8.353   0.158  -3.549  0.00  0.00     0.009 A 
ATOM     22  C15 <0> d          -9.651  -0.318  -3.543  0.00  0.00     0.001 A 
ATOM     23  C14 <0> d          -9.928  -1.575  -4.049  0.00  0.00     0.000 A 
ATOM     24  C13 <0> d          -8.908  -2.353  -4.564  0.00  0.00     0.001 A 
ATOM     25  C12 <0> d          -7.611  -1.874  -4.574  0.00  0.00     0.009 A 
ENDBRANCH  19  20
ENDBRANCH   6  19
TORSDOF 6
ENDMDL
MODEL ZINC39284546
REMARK  3 active torsions:
REMARK  status: ('A' for Active; 'I' for Inactive)
REMARK    1  A    between atoms: C2_2  and  C3_3 
REMARK    2  A    between atoms: C3_3  and  C5_5 
REMARK    3  A    between atoms: C3_3  and  O1_11 
ROOT
ATOM      1  C5  <0> d           0.739  -2.004  -1.265  0.00  0.00     0.017 A 
ATOM      2  C6  <0> d           0.746  -2.852  -2.323  0.00  0.00     0.019 A 
ATOM      3  C7  <0> d           0.766  -4.214  -2.090  0.00  0.00     0.015 A 
ATOM      4  C8  <0> d           0.778  -4.662  -0.810  0.00  0.00    -0.021 A 
ATOM      5  S1  <0> d           0.768  -3.136   0.116  0.00  0.00    -0.097 SA
ATOM      6  C9  <0> d           0.800  -6.081  -0.302  0.00  0.00     0.056 C 
ENDROOT
BRANCH   1   7
ATOM      7  C3  <0> d           0.718  -0.497  -1.257  0.00  0.00     0.087 C 
ATOM      8  C4  <0> d           2.154   0.032  -1.268  0.00  0.00     0.051 C 
BRANCH   7   9
ATOM      9  C2  <0> d           0.002  -0.004   0.002  0.00  0.00     0.038 C 
ATOM     10  C1  <0> d          -0.019   1.526   0.010  0.00  0.00     0.008 C 
ENDBRANCH   7   9
BRANCH   7  11
ATOM     11  O1  <0> d           0.027  -0.024  -2.414  0.00  0.00    -0.385 OA
ATOM     12  H14 <0> d          -0.891  -0.322  -2.473  0.00  0.00     0.211 HD
ENDBRANCH   7  11
ENDBRANCH   1   7
TORSDOF 3
ENDMDL
MODEL ZINC12528166
REMARK  6 active torsions:
REMARK  status: ('A' for Active; 'I' for Inactive)
REMARK    1  A    between atoms: C4_4  and  S1_12 
REMARK    2  A    between atoms: S1_12  and  C11_13 
REMARK    3  A    between atoms: C11_13  and  C12_14 
REMARK    4  A    between atoms: C12_14  and  C13_15 
REMARK    5  A    between atoms: C12_14  and  N2_18 
REMARK       I    between atoms: N2_18  and  C14_19 
REMARK    6  A    between atoms: C14_19  and  C15_21 
ROOT
ATOM      1  C12 <0> d           0.005  -2.279  -5.415  0.00  0.00     0.195 C 
ENDROOT
BRANCH   1   2
ATOM      2  C11 <0> d           0.004  -1.641  -4.024  0.00  0.00     0.115 C 
BRANCH   2   3
ATOM      3  S1  <0> d           0.028  -2.943  -2.761  0.00  0.00    -0.126 SA
BRANCH   3   4
ATOM      4  C4  <0> d           0.024  -2.058  -1.237  0.00  0.00     0.015 A 
ATOM      5  C3  <0> d           0.005  -0.671  -1.215  0.00  0.00     0.046 A 
ATOM      6  C2  <0> d           0.002  -0.004   0.002  0.00  0.00     0.032 A 
ATOM      7  C1  <0> d          -0.018   1.503   0.010  0.00  0.00     0.070 C 
ATOM      8  N1  <0> d           0.022  -0.648   1.146  0.00  0.00    -0.253 NA
ATOM      9  C10 <0> d           0.035  -1.985   1.200  0.00  0.00     0.068 A 
ATOM     10  C5  <0> d           0.039  -2.741   0.004  0.00  0.00     0.009 A 
ATOM     11  C9  <0> d           0.050  -2.659   2.433  0.00  0.00     0.032 A 
ATOM     12  C6  <0> d           0.059  -4.140   0.066  0.00  0.00     0.015 A 
ATOM     13  C7  <0> d           0.074  -4.761   1.280  0.00  0.00     0.001 A 
ATOM     14  C8  <0> d           0.069  -4.020   2.459  0.00  0.00     0.002 A 
ENDBRANCH   3   4
ENDBRANCH   2   3
ENDBRANCH   1   2
BRANCH   1  15
ATOM     15  C13 <0> d           0.109  -1.201  -6.462  0.00  0.00     0.197 C 
ATOM     16  O1  <0> d           1.204  -0.834  -6.853  0.00  0.00    -0.646 OA
ATOM     17  O2  <0> d          -0.902  -0.695  -6.919  0.00  0.00    -0.646 OA
ENDBRANCH   1  15
BRANCH   1  18
ATOM     18  N2  <0> d          -1.237  -3.030  -5.608  0.00  0.00    -0.342 N 
ATOM     19  C14 <0> d          -1.276  -4.056  -6.482  0.00  0.00     0.252 C 
ATOM     20  O3  <0> d          -0.279  -4.357  -7.110  0.00  0.00    -0.268 OA
ATOM     21  H12 <0> d          -2.033  -2.790  -5.108  0.00  0.00     0.163 HD
BRANCH  19  22
ATOM     22  C15 <0> d          -2.530  -4.814  -6.678  0.00  0.00     0.032 A 
ATOM     23  C20 <0> d          -2.573  -5.876  -7.582  0.00  0.00     0.017 A 
ATOM     24  C19 <0> d          -3.745  -6.583  -7.756  0.00  0.00     0.001 A 
ATOM     25  C18 <0> d          -4.879  -6.233  -7.045  0.00  0.00     0.000 A 
ATOM     26  C17 <0> d          -4.845  -5.178  -6.151  0.00  0.00     0.001 A 
ATOM     27  C16 <0> d          -3.677  -4.466  -5.963  0.00  0.00     0.017 A 
ENDBRANCH  19  22
ENDBRANCH   1  18
TORSDOF 6
ENDMDL
MODEL ZINC01078743
REMARK  4 active torsions:
REMARK  status: ('A' for Active; 'I' for Inactive)
REMARK    1  A    between atoms: O1_2  and  C2_3 
REMARK    2  A    between atoms: C5_6  and  S1_10 
REMARK    3  A    between atoms: S1_10  and  N1_13 
REMARK    4  A    between atoms: N1_13  and  C8_14 
ROOT
ATOM      1  S1  <0> d           1.506   2.038  -0.101  0.00  0.00     0.263 S 
ATOM      2  O2  <0> d           1.413   3.447   0.063  0.00  0.00    -0.200 OA
ATOM      3  O3  <0> d           2.302   1.223   0.749  0.00  0.00    -0.200 OA
ENDROOT
BRANCH   1   4
ATOM      4  C5  <0> d           2.074   1.759  -1.745  0.00  0.00     0.081 A 
ATOM      5  C4  <0> d           2.679   0.559  -2.071  0.00  0.00     0.028 A 
ATOM      6  C3  <0> d           3.121   0.335  -3.361  0.00  0.00     0.039 A 
ATOM      7  C2  <0> d           2.967   1.319  -4.326  0.00  0.00     0.084 A 
ATOM      8  C7  <0> d           2.364   2.524  -3.995  0.00  0.00     0.041 A 
ATOM      9  C6  <0> d           1.919   2.741  -2.705  0.00  0.00     0.046 A 
ATOM     10  I1  <0> d           2.128   4.013  -5.450  0.00  0.00    -0.042 I 
BRANCH   7  11
ATOM     11  O1  <0> d           3.405   1.103  -5.595  0.00  0.00    -0.355 OA
ATOM     12  C1  <0> d           4.016  -0.161  -5.863  0.00  0.00     0.210 C 
ENDBRANCH   7  11
ENDBRANCH   1   4
BRANCH   1  13
ATOM     13  N1  <0> d          -0.039   1.449  -0.010  0.00  0.00    -0.281 N 
ATOM     14  H7  <0> d          -0.779   2.052   0.162  0.00  0.00     0.179 HD
BRANCH  13  15
ATOM     15  C8  <0> d          -0.278   0.084  -0.187  0.00  0.00     0.044 A 
ATOM     16  C13 <0> d          -0.846  -0.375  -1.368  0.00  0.00     0.054 A 
ATOM     17  C12 <0> d          -1.076  -1.727  -1.541  0.00  0.00     0.036 A 
ATOM     18  C11 <0> d          -0.751  -2.620  -0.535  0.00  0.00     0.024 A 
ATOM     19 Cl1  <0> d          -1.781  -2.304  -3.019  0.00  0.00    -0.084 Cl
ATOM     20  C10 <0> d          -0.190  -2.164   0.643  0.00  0.00     0.004 A 
ATOM     21  C9  <0> d           0.048  -0.816   0.821  0.00  0.00     0.030 A 
ENDBRANCH  13  15
ENDBRANCH   1  13
TORSDOF 4
ENDMDL
MODEL ZINC01202228
REMARK  7 active torsions:
REMARK  status: ('A' for Active; 'I' for Inactive)
REMARK    1  A    between atoms: C2_2  and  C3_3 
REMARK    2  A    between atoms: C2_2  and  N3_18 
REMARK       I    between atoms: C3_3  and  N1_5 
REMARK    3  A    between atoms: N1_5  and  N2_6 
REMARK    4  A    between atoms: C4_7  and  C5_8 
REMARK    5  A    between atoms: C8_11  and  O3_16 
REMARK    6  A    between atoms: C10_13  and  O2_14 
REMARK    7  A    between atoms: N3_18  and  C13_19 
ROOT
ATOM      1  C3  <0> d          -2.334  -0.973   4.149  0.00  0.00     0.260 C 
ATOM      2  O1  <0> d          -1.778  -1.429   3.172  0.00  0.00    -0.269 OA
ATOM      3  N1  <0> d          -2.436   0.361   4.306  0.00  0.00    -0.246 N 
ATOM      4  H5  <0> d          -2.881   0.726   5.087  0.00  0.00     0.192 HD
ENDROOT
BRANCH   3   5
ATOM      5  N2  <0> d          -1.899   1.223   3.341  0.00  0.00    -0.184 NA
ATOM      6  C4  <0> d          -1.996   2.509   3.491  0.00  0.00     0.153 C 
BRANCH   6   7
ATOM      7  C5  <0> d          -1.431   3.414   2.476  0.00  0.00     0.017 A 
ATOM      8  C10 <0> d          -0.787   2.891   1.346  0.00  0.00     0.082 A 
ATOM      9  C9  <0> d          -0.255   3.748   0.399  0.00  0.00     0.074 A 
ATOM     10  C8  <0> d          -0.367   5.121   0.564  0.00  0.00     0.070 A 
ATOM     11  C7  <0> d          -1.006   5.642   1.684  0.00  0.00     0.038 A 
ATOM     12  C6  <0> d          -1.535   4.799   2.636  0.00  0.00     0.018 A 
BRANCH   8  13
ATOM     13  O2  <0> d          -0.682   1.547   1.184  0.00  0.00    -0.355 OA
ATOM     14  C11 <0> d          -0.013   1.086   0.008  0.00  0.00     0.210 C 
ENDBRANCH   8  13
BRANCH  10  15
ATOM     15  O3  <0> d           0.153   5.960  -0.369  0.00  0.00    -0.356 OA
ATOM     16  C12 <0> d           0.007   7.362  -0.135  0.00  0.00     0.210 C 
ENDBRANCH  10  15
ENDBRANCH   6   7
ENDBRANCH   3   5
BRANCH   1  17
ATOM     17  C2  <0> d          -2.913  -1.900   5.188  0.00  0.00     0.171 C 
ATOM     18  C1  <0> d          -2.243  -1.634   6.538  0.00  0.00     0.042 C 
BRANCH  17  19
ATOM     19  N3  <0> d          -2.674  -3.289   4.790  0.00  0.00    -0.377 N 
ATOM     20  H16 <0> d          -1.933  -3.505   4.203  0.00  0.00     0.160 HD
BRANCH  19  21
ATOM     21  C13 <0> d          -3.515  -4.304   5.255  0.00  0.00     0.028 A 
ATOM     22  C18 <0> d          -3.290  -5.622   4.878  0.00  0.00     0.030 A 
ATOM     23  C17 <0> d          -4.122  -6.622   5.340  0.00  0.00     0.021 A 
ATOM     24  C16 <0> d          -5.179  -6.313   6.177  0.00  0.00     0.011 A 
ATOM     25  C15 <0> d          -5.406  -5.001   6.554  0.00  0.00     0.021 A 
ATOM     26 Br1  <0> d          -6.317  -7.686   6.807  0.00  0.00    -0.051 Br
ATOM     27  C14 <0> d          -4.574  -3.997   6.100  0.00  0.00     0.030 A 
ENDBRANCH  19  21
ENDBRANCH  17  19
ENDBRANCH   1  17
TORSDOF 7
ENDMDL
MODEL ZINC84307093
REMARK  3 active torsions:
REMARK  status: ('A' for Active; 'I' for Inactive)
REMARK    1  A    between atoms: C2_3  and  S1_7 
REMARK    2  A    between atoms: S1_7  and  C3_8 
REMARK    3  A    between atoms: C3_8  and  C4_9 
ROOT
ATOM      1  C4  <0> d           0.000  -1.592  -5.190  0.00  0.00     0.143 C 
ATOM      2  C5  <0> d          -0.048  -2.907  -6.003  0.00  0.00     0.074 C 
ATOM      3  C6  <0> d           0.827  -2.570  -7.195  0.00  0.00    -0.022 A 
ATOM      4  C7  <0> d           0.992  -3.175  -8.422  0.00  0.00     0.010 A 
ATOM      5  C8  <0> d           1.873  -2.639  -9.344  0.00  0.00     0.001 A 
ATOM      6  C9  <0> d           2.584  -1.496  -9.030  0.00  0.00     0.003 A 
ATOM      7  C10 <0> d           2.423  -0.890  -7.801  0.00  0.00     0.037 A 
ATOM      8  C11 <0> d           1.541  -1.426  -6.865  0.00  0.00     0.075 A 
ATOM      9  O1  <0> d           1.245  -1.003  -5.603  0.00  0.00    -0.344 OA
ENDROOT
BRANCH   1  10
ATOM     10  C3  <0> d           0.011  -1.884  -3.688  0.00  0.00     0.115 C 
BRANCH  10  11
ATOM     11  S1  <0> d          -0.006  -0.321  -2.768  0.00  0.00    -0.086 SA
BRANCH  11  12
ATOM     12  C2  <0> d           0.008  -0.820  -1.078  0.00  0.00     0.208 A 
ATOM     13  N1  <0> d           0.002  -0.004   0.002  0.00  0.00    -0.230 N 
ATOM     14  C1  <0> d          -0.018   1.461   0.010  0.00  0.00     0.184 C 
ATOM     15  N4  <0> d           0.025  -0.864   1.114  0.00  0.00    -0.044 NA
ATOM     16  N3  <0> d           0.033  -2.068   0.655  0.00  0.00    -0.022 NA
ATOM     17  N2  <0> d           0.027  -2.056  -0.629  0.00  0.00    -0.102 NA
ENDBRANCH  11  12
ENDBRANCH  10  11
ENDBRANCH   1  10
TORSDOF 3
ENDMDL
MODEL ZINC84495914
REMARK  5 active torsions:
REMARK  status: ('A' for Active; 'I' for Inactive)
REMARK    1  A    between atoms: C7_9  and  C9_11 
REMARK    2  A    between atoms: C9_11  and  S1_12 
REMARK    3  A    between atoms: S1_12  and  C10_13 
REMARK    4  A    between atoms: C10_13  and  C12_15 
REMARK    5  A    between atoms: C12_15  and  O1_16 
ROOT
ATOM      1  C1  <0> d          -0.018   1.503   0.010  0.00  0.00     0.052 C 
ATOM      2  C2  <0> d           0.002  -0.004   0.002  0.00  0.00    -0.015 A 
ATOM      3  C3  <0> d           0.006  -0.685  -1.176  0.00  0.00     0.012 A 
ATOM      4  C4  <0> d           0.025  -2.089  -1.168  0.00  0.00     0.018 A 
ATOM      5  C5  <0> d           0.039  -2.763   0.001  0.00  0.00     0.098 A 
ATOM      6  N1  <0> d           0.035  -2.093   1.190  0.00  0.00    -0.315 N 
ATOM      7  C6  <0> d           0.023  -0.722   1.214  0.00  0.00     0.140 A 
ATOM      8  N2  <0> d           0.030  -0.334   2.482  0.00  0.00    -0.233 NA
ATOM      9  C7  <0> d           0.051  -1.412   3.270  0.00  0.00     0.062 A 
ATOM     10  C8  <0> d           0.046  -2.516   2.491  0.00  0.00     0.126 A 
ENDROOT
BRANCH   9  11
ATOM     11  C9  <0> d           0.066  -1.399   4.777  0.00  0.00     0.135 C 
BRANCH  11  12
ATOM     12  S1  <0> d          -1.639  -1.417   5.398  0.00  0.00    -0.156 SA
BRANCH  12  13
ATOM     13  C10 <0> d          -1.449  -1.399   7.202  0.00  0.00     0.067 C 
ATOM     14  C11 <0> d          -0.808  -0.079   7.634  0.00  0.00     0.023 C 
BRANCH  13  15
ATOM     15  C12 <0> d          -2.823  -1.538   7.860  0.00  0.00     0.181 C 
BRANCH  15  16
ATOM     16  O1  <0> d          -2.688  -1.407   9.277  0.00  0.00    -0.395 OA
ATOM     17  C13 <0> d          -3.920  -1.522   9.992  0.00  0.00     0.201 C 
ENDBRANCH  15  16
ENDBRANCH  13  15
ENDBRANCH  12  13
ENDBRANCH  11  12
ENDBRANCH   9  11
TORSDOF 5
ENDMDL
MODEL ZINC01201960
REMARK  4 active torsions:
REMARK  status: ('A' for Active; 'I' for Inactive)
REMARK    1  A    between atoms: N1_2  and  C3_4 
REMARK    2  A    between atoms: C6_7  and  C9_11 
REMARK    3  A    between atoms: N2_12  and  N3_13 
REMARK       I    between atoms: N3_13  and  C10_14 
REMARK    4  A    between atoms: C10_14  and  C11_16 
ROOT
ATOM      1  N3  <0> d          -1.202  -0.721   0.010  0.00  0.00    -0.245 N 
ATOM      2  C10 <0> d          -1.183  -2.069   0.002  0.00  0.00     0.269 C 
ATOM      3  O1  <0> d          -0.125  -2.661  -0.011  0.00  0.00    -0.269 OA
ATOM      4  H12 <0> d          -2.048  -0.247   0.020  0.00  0.00     0.192 HD
ENDROOT
BRANCH   1   5
ATOM      5  N2  <0> d           0.002  -0.004   0.002  0.00  0.00    -0.184 NA
ATOM      6  C9  <0> d          -0.015   1.294   0.009  0.00  0.00     0.150 C 
BRANCH   6   7
ATOM      7  C6  <0> d           1.251   2.048   0.001  0.00  0.00    -0.016 A 
ATOM      8  C5  <0> d           1.234   3.446   0.009  0.00  0.00     0.015 A 
ATOM      9  C4  <0> d           2.419   4.148   0.002  0.00  0.00     0.026 A 
ATOM     10  C3  <0> d           3.632   3.468  -0.013  0.00  0.00     0.027 A 
ATOM     11  C8  <0> d           3.653   2.076  -0.021  0.00  0.00     0.033 A 
ATOM     12  C7  <0> d           2.471   1.367  -0.008  0.00  0.00     0.033 A 
ATOM     13 Br1  <0> d           5.306   1.157  -0.041  0.00  0.00    -0.049 Br
BRANCH  10  14
ATOM     14  N1  <0> d           4.830   4.182  -0.021  0.00  0.00    -0.291 NA
ATOM     15  C1  <0> d           4.920   5.047  -1.205  0.00  0.00     0.116 C 
ATOM     16  C2  <0> d           4.986   4.963   1.214  0.00  0.00     0.116 C 
ENDBRANCH  10  14
ENDBRANCH   6   7
ENDBRANCH   1   5
BRANCH   2  17
ATOM     17  C11 <0> d          -2.478  -2.840   0.011  0.00  0.00     0.246 C 
ATOM     18  O3  <0> d          -2.205  -4.241   0.118  0.00  0.00    -0.331 OA
ATOM     19  C18 <0> d          -3.234  -5.088  -0.157  0.00  0.00     0.103 A 
ATOM     20  C13 <0> d          -4.353  -4.646  -0.852  0.00  0.00     0.102 A 
ATOM     21  C17 <0> d          -3.160  -6.408   0.263  0.00  0.00     0.040 A 
ATOM     22  O2  <0> d          -4.449  -3.353  -1.267  0.00  0.00    -0.345 OA
ATOM     23  C14 <0> d          -5.389  -5.527  -1.125  0.00  0.00     0.039 A 
ATOM     24  C12 <0> d          -3.233  -2.597  -1.303  0.00  0.00     0.218 C 
ATOM     25  C15 <0> d          -5.308  -6.841  -0.705  0.00  0.00     0.003 A 
ATOM     26  C16 <0> d          -4.196  -7.281  -0.011  0.00  0.00     0.003 A 
ENDBRANCH   2  17
TORSDOF 4
ENDMDL
MODEL ZINC32642954
REMARK  3 active torsions:
REMARK  status: ('A' for Active; 'I' for Inactive)
REMARK    1  A    between atoms: C6_6  and  N1_8 
REMARK       I    between atoms: N1_8  and  C8_9 
REMARK    2  A    between atoms: C8_9  and  C9_11 
REMARK    3  A    between atoms: C10_12  and  N4_21 
ROOT
ATOM      1  C9  <0> d           0.280  -2.886   4.829  0.00  0.00     0.171 A 
ATOM      2  C10 <0> d           0.269  -2.192   6.062  0.00  0.00     0.161 A 
ATOM      3  N2  <0> d           0.381  -2.853   7.199  0.00  0.00    -0.227 NA
ATOM      4  C11 <0> d           0.504  -4.185   7.184  0.00  0.00     0.088 A 
ATOM      5  C12 <0> d           0.624  -4.912   8.381  0.00  0.00     0.034 A 
ATOM      6  C13 <0> d           0.748  -6.267   8.339  0.00  0.00     0.002 A 
ATOM      7  C14 <0> d           0.758  -6.949   7.123  0.00  0.00     0.002 A 
ATOM      8  C15 <0> d           0.645  -6.281   5.944  0.00  0.00     0.034 A 
ATOM      9  C16 <0> d           0.514  -4.879   5.946  0.00  0.00     0.086 A 
ATOM     10  N3  <0> d           0.396  -4.201   4.803  0.00  0.00    -0.237 NA
ENDROOT
BRANCH   1  11
ATOM     11  C8  <0> d           0.154  -2.134   3.561  0.00  0.00     0.278 C 
ATOM     12  N1  <0> d           0.056  -2.797   2.391  0.00  0.00    -0.321 N 
ATOM     13  H7  <0> d          -0.012  -3.764   2.386  0.00  0.00     0.169 HD
ATOM     14  O1  <0> d           0.138  -0.919   3.574  0.00  0.00    -0.265 OA
BRANCH  12  15
ATOM     15  C6  <0> d           0.053  -2.089   1.185  0.00  0.00     0.041 A 
ATOM     16  C5  <0> d          -0.537  -2.641   0.056  0.00  0.00    -0.035 A 
ATOM     17  C4  <0> d          -0.538  -1.940  -1.134  0.00  0.00     0.009 A 
ATOM     18  C21 <0> d          -1.177  -4.004   0.129  0.00  0.00     0.050 C 
ATOM     19  C3  <0> d           0.048  -0.689  -1.201  0.00  0.00     0.007 A 
ATOM     20  C2  <0> d           0.636  -0.137  -0.079  0.00  0.00    -0.060 A 
ATOM     21  C1  <0> d           1.274   1.227  -0.157  0.00  0.00     0.048 C 
ATOM     22  C7  <0> d           0.646  -0.835   1.113  0.00  0.00     0.037 A 
ENDBRANCH  12  15
ENDBRANCH   1  11
BRANCH   2  23
ATOM     23  N4  <0> d           0.141  -0.816   6.076  0.00  0.00    -0.360 N 
ATOM     24  C20 <0> d           1.326   0.054   6.137  0.00  0.00     0.151 C 
ATOM     25  C19 <0> d           1.128   1.071   7.262  0.00  0.00     0.187 C 
ATOM     26  O2  <0> d          -0.132   1.724   7.091  0.00  0.00    -0.388 OA
ATOM     27  C18 <0> d          -1.260   0.850   7.171  0.00  0.00     0.187 C 
ATOM     28  C17 <0> d          -1.184  -0.177   6.036  0.00  0.00     0.151 C 
ENDBRANCH   2  23
TORSDOF 3
ENDMDL
MODEL ZINC85408891
REMARK  2 active torsions:
REMARK  status: ('A' for Active; 'I' for Inactive)
REMARK    1  A    between atoms: C5_5  and  C8_8 
REMARK    2  A    between atoms: C8_8  and  C9_10 
ROOT
ATOM      1  C9  <0> d           0.187  -4.990   1.241  0.00  0.00     0.045 A 
ATOM      2  C10 <0> d           0.195  -4.462   2.502  0.00  0.00     0.143 A 
ATOM      3  N1  <0> d           0.329  -5.453   3.413  0.00  0.00    -0.198 N 
ATOM      4  C11 <0> d           0.415  -6.678   2.786  0.00  0.00     0.078 A 
ATOM      5  C12 <0> d           0.325  -6.450   1.400  0.00  0.00     0.010 A 
ATOM      6  C13 <0> d           0.377  -7.513   0.504  0.00  0.00     0.039 A 
ATOM      7  C14 <0> d           0.516  -8.811   0.981  0.00  0.00     0.066 A 
ATOM      8  C15 <0> d           0.604  -9.042   2.373  0.00  0.00     0.067 A 
ATOM      9  C16 <0> d           0.558  -7.975   3.263  0.00  0.00     0.057 A 
ATOM     10  C17 <0> d           0.747 -10.379   2.868  0.00  0.00     0.101 C 
ATOM     11  N2  <0> d           0.860 -11.439   3.260  0.00  0.00    -0.191 NA
ATOM     12  C18 <0> d           0.570  -9.910   0.066  0.00  0.00     0.101 C 
ATOM     13  N3  <0> d           0.613 -10.783  -0.660  0.00  0.00    -0.191 NA
ATOM     14  O2  <0> d           0.375  -5.259   4.815  0.00  0.00    -0.081 OA
ENDROOT
BRANCH   1  15
ATOM     15  C8  <0> d           0.060  -4.252  -0.021  0.00  0.00     0.194 C 
ATOM     16  O1  <0> d          -0.045  -4.856  -1.072  0.00  0.00    -0.287 OA
BRANCH  15  17
ATOM     17  C5  <0> d           0.058  -2.773  -0.016  0.00  0.00     0.015 A 
ATOM     18  C4  <0> d          -0.635  -2.068  -1.002  0.00  0.00     0.016 A 
ATOM     19  C3  <0> d          -0.632  -0.689  -0.990  0.00  0.00     0.007 A 
ATOM     20  C2  <0> d           0.055  -0.004  -0.004  0.00  0.00    -0.062 A 
ATOM     21  C1  <0> d           0.053   1.503   0.002  0.00  0.00     0.048 C 
ATOM     22  C7  <0> d           0.748  -0.696   0.973  0.00  0.00     0.007 A 
ATOM     23  C6  <0> d           0.750  -2.075   0.976  0.00  0.00     0.016 A 
ENDBRANCH  15  17
ENDBRANCH   1  15
TORSDOF 2
ENDMDL
MODEL ZINC08762598
REMARK  5 active torsions:
REMARK  status: ('A' for Active; 'I' for Inactive)
REMARK    1  A    between atoms: C4_4  and  C12_16 
REMARK    2  A    between atoms: C6_6  and  C8_11 
REMARK       I    between atoms: C12_16  and  N3_18 
REMARK    3  A    between atoms: N3_18  and  C13_19 
REMARK    4  A    between atoms: C13_19  and  C14_20 
REMARK    5  A    between atoms: C14_20  and  C15_21 
ROOT
ATOM      1  C1  <0> d           4.920  -0.974  -0.048  0.00  0.00     0.074 C 
ATOM      2  C2  <0> d           3.428  -1.181  -0.036  0.00  0.00     0.074 A 
ATOM      3  C3  <0> d           2.410  -0.156  -0.257  0.00  0.00     0.061 A 
ATOM      4  C4  <0> d           2.459   1.228  -0.529  0.00  0.00     0.051 A 
ATOM      5  C5  <0> d           1.255   1.905  -0.686  0.00  0.00     0.052 A 
ATOM      6  C6  <0> d           0.054   1.194  -0.568  0.00  0.00     0.094 A 
ATOM      7  N1  <0> d           0.045  -0.107  -0.311  0.00  0.00    -0.219 NA
ATOM      8  C7  <0> d           1.163  -0.797  -0.154  0.00  0.00     0.208 A 
ATOM      9  O1  <0> d           1.412  -2.097   0.107  0.00  0.00    -0.192 OA
ATOM     10  N2  <0> d           2.808  -2.303   0.174  0.00  0.00    -0.130 NA
ENDROOT
BRANCH   4  11
ATOM     11  C12 <0> d           3.753   1.937  -0.645  0.00  0.00     0.252 C 
ATOM     12  O3  <0> d           4.710   1.378  -1.145  0.00  0.00    -0.268 OA
ATOM     13  N3  <0> d           3.871   3.203  -0.197  0.00  0.00    -0.356 N 
ATOM     14  H8  <0> d           3.108   3.649   0.202  0.00  0.00     0.162 HD
BRANCH  13  15
ATOM     15  C13 <0> d           5.152   3.904  -0.312  0.00  0.00     0.129 C 
BRANCH  15  16
ATOM     16  C14 <0> d           5.016   5.314   0.268  0.00  0.00     0.084 C 
BRANCH  16  17
ATOM     17  C15 <0> d           6.333   6.035   0.149  0.00  0.00     0.054 A 
ATOM     18  O4  <0> d           7.311   6.042   1.070  0.00  0.00    -0.327 OA
ATOM     19  C18 <0> d           8.339   6.784   0.627  0.00  0.00     0.142 A 
ATOM     20  C17 <0> d           8.020   7.270  -0.586  0.00  0.00     0.027 A 
ATOM     21  C16 <0> d           6.727   6.787  -0.894  0.00  0.00     0.034 A 
ENDBRANCH  16  17
ENDBRANCH  15  16
ENDBRANCH  13  15
ENDBRANCH   4  11
BRANCH   6  22
ATOM     22  C8  <0> d          -1.226   1.906  -0.739  0.00  0.00     0.103 A 
ATOM     23  O2  <0> d          -1.372   3.219  -1.002  0.00  0.00    -0.320 OA
ATOM     24  C11 <0> d          -2.678   3.514  -1.092  0.00  0.00     0.142 A 
ATOM     25  C10 <0> d          -3.391   2.387  -0.886  0.00  0.00     0.027 A 
ATOM     26  C9  <0> d          -2.466   1.349  -0.664  0.00  0.00     0.041 A 
ENDBRANCH   6  22
TORSDOF 5
ENDMDL
MODEL ZINC49422254
REMARK  6 active torsions:
REMARK  status: ('A' for Active; 'I' for Inactive)
REMARK    1  A    between atoms: C5_5  and  C8_8 
REMARK       I    between atoms: C8_8  and  N1_10 
REMARK    2  A    between atoms: N1_10  and  C9_11 
REMARK    3  A    between atoms: C12_14  and  C15_17 
REMARK    4  A    between atoms: C15_17  and  N2_18 
REMARK    5  A    between atoms: C17_20  and  C19_23 
REMARK       I    between atoms: C19_23  and  N4_25 
REMARK    6  A    between atoms: N4_25  and  C20_26 
ROOT
ATOM      1  C9  <0> d          -0.240  -6.741   0.492  0.00  0.00     0.035 A 
ATOM      2  C10 <0> d          -0.102  -7.515  -0.653  0.00  0.00     0.030 A 
ATOM      3  C11 <0> d           0.113  -8.875  -0.543  0.00  0.00     0.011 A 
ATOM      4  C12 <0> d           0.189  -9.466   0.704  0.00  0.00    -0.040 A 
ATOM      5  C13 <0> d           0.051  -8.698   1.846  0.00  0.00     0.011 A 
ATOM      6  C14 <0> d          -0.157  -7.337   1.744  0.00  0.00     0.030 A 
ENDROOT
BRANCH   4   7
ATOM      7  C15 <0> d           0.422 -10.950   0.820  0.00  0.00     0.167 C 
BRANCH   7   8
ATOM      8  N2  <0> d           1.862 -11.215   0.877  0.00  0.00    -0.345 N 
ATOM      9  C18 <0> d           2.622 -11.279   2.001  0.00  0.00     0.210 A 
ATOM     10  N3  <0> d           3.854 -11.536   1.667  0.00  0.00    -0.237 NA
ATOM     11  C17 <0> d           3.933 -11.637   0.315  0.00  0.00     0.141 A 
ATOM     12  C16 <0> d           2.680 -11.436  -0.186  0.00  0.00     0.129 A 
BRANCH  11  13
ATOM     13  C19 <0> d           5.149 -11.915  -0.467  0.00  0.00     0.276 C 
ATOM     14  O2  <0> d           5.090 -11.983  -1.680  0.00  0.00    -0.266 OA
ATOM     15  N4  <0> d           6.328 -12.095   0.161  0.00  0.00    -0.322 N 
ATOM     16  H17 <0> d           6.363 -12.115   1.130  0.00  0.00     0.169 HD
BRANCH  15  17
ATOM     17  C20 <0> d           7.501 -12.253  -0.585  0.00  0.00     0.035 A 
ATOM     18  C25 <0> d           7.652 -11.587  -1.794  0.00  0.00     0.029 A 
ATOM     19  C24 <0> d           8.813 -11.740  -2.525  0.00  0.00     0.002 A 
ATOM     20  C23 <0> d           9.821 -12.565  -2.059  0.00  0.00     0.000 A 
ATOM     21  C22 <0> d           9.672 -13.233  -0.858  0.00  0.00     0.002 A 
ATOM     22  C21 <0> d           8.515 -13.080  -0.120  0.00  0.00     0.029 A 
ENDBRANCH  15  17
ENDBRANCH  11  13
ENDBRANCH   7   8
ENDBRANCH   4   7
BRANCH   1  23
ATOM     23  N1  <0> d          -0.457  -5.364   0.384  0.00  0.00    -0.323 N 
ATOM     24  C8  <0> d           0.091  -4.523   1.284  0.00  0.00     0.256 C 
ATOM     25  O1  <0> d           0.702  -4.967   2.237  0.00  0.00    -0.267 OA
ATOM     26  H8  <0> d          -1.001  -5.013  -0.338  0.00  0.00     0.169 HD
BRANCH  24  27
ATOM     27  C5  <0> d          -0.052  -3.062   1.113  0.00  0.00     0.032 A 
ATOM     28  C4  <0> d           0.513  -2.188   2.044  0.00  0.00     0.017 A 
ATOM     29  C3  <0> d           0.376  -0.826   1.878  0.00  0.00     0.007 A 
ATOM     30  C2  <0> d          -0.320  -0.324   0.793  0.00  0.00    -0.062 A 
ATOM     31  C1  <0> d          -0.465   1.166   0.618  0.00  0.00     0.048 C 
ATOM     32  C7  <0> d          -0.888  -1.184  -0.130  0.00  0.00     0.007 A 
ATOM     33  C6  <0> d          -0.754  -2.549   0.021  0.00  0.00     0.017 A 
ENDBRANCH  24  27
ENDBRANCH   1  23
TORSDOF 6
ENDMDL
MODEL ZINC08808365
REMARK  6 active torsions:
REMARK  status: ('A' for Active; 'I' for Inactive)
REMARK    1  A    between atoms: C2_2  and  C3_3 
REMARK    2  A    between atoms: C2_2  and  S1_19 
REMARK       I    between atoms: C3_3  and  N1_5 
REMARK    3  A    between atoms: N1_5  and  C4_6 
REMARK    4  A    between atoms: C4_6  and  C5_7 
REMARK       I    between atoms: C5_7  and  N2_9 
REMARK    5  A    between atoms: N2_9  and  C6_10 
REMARK    6  A    between atoms: S1_19  and  C12_20 
ROOT
ATOM      1  C3  <0> d          -0.735   3.085   1.241  0.00  0.00     0.232 C 
ATOM      2  O1  <0> d          -1.732   3.680   0.889  0.00  0.00    -0.272 OA
ATOM      3  N1  <0> d           0.352   3.772   1.644  0.00  0.00    -0.351 N 
ATOM      4  H5  <0> d           1.149   3.297   1.925  0.00  0.00     0.163 HD
ENDROOT
BRANCH   3   5
ATOM      5  C4  <0> d           0.330   5.237   1.657  0.00  0.00     0.225 C 
BRANCH   5   6
ATOM      6  C5  <0> d           1.658   5.755   2.145  0.00  0.00     0.239 C 
ATOM      7  O2  <0> d           2.537   4.978   2.451  0.00  0.00    -0.271 OA
ATOM      8  N2  <0> d           1.869   7.083   2.241  0.00  0.00    -0.323 N 
ATOM      9  H8  <0> d           1.191   7.705   1.936  0.00  0.00     0.169 HD
BRANCH   8  10
ATOM     10  C6  <0> d           3.069   7.564   2.782  0.00  0.00     0.077 A 
ATOM     11  C11 <0> d           3.073   8.729   3.540  0.00  0.00     0.184 A 
ATOM     12  C10 <0> d           4.260   9.202   4.073  0.00  0.00     0.195 A 
ATOM     13  F1  <0> d           1.920   9.400   3.755  0.00  0.00    -0.200 F 
ATOM     14  C9  <0> d           5.442   8.513   3.851  0.00  0.00     0.158 A 
ATOM     15  F2  <0> d           4.266  10.334   4.810  0.00  0.00    -0.199 F 
ATOM     16  C8  <0> d           5.438   7.352   3.096  0.00  0.00     0.048 A 
ATOM     17  F3  <0> d           6.600   8.975   4.372  0.00  0.00    -0.203 F 
ATOM     18  C7  <0> d           4.255   6.875   2.566  0.00  0.00     0.036 A 
ENDBRANCH   8  10
ENDBRANCH   5   6
ENDBRANCH   3   5
BRANCH   1  19
ATOM     19  C2  <0> d          -0.712   1.579   1.227  0.00  0.00     0.143 C 
ATOM     20  C1  <0> d           0.014   1.091  -0.029  0.00  0.00     0.031 C 
BRANCH  19  21
ATOM     21  S1  <0> d          -2.409   0.949   1.225  0.00  0.00    -0.078 SA
BRANCH  21  22
ATOM     22  C12 <0> d          -2.094  -0.779   1.360  0.00  0.00     0.170 A 
ATOM     23  N4  <0> d          -3.054  -1.751   1.409  0.00  0.00    -0.328 N 
ATOM     24  C18 <0> d          -2.401  -2.968   1.511  0.00  0.00     0.065 A 
ATOM     25  C19 <0> d          -4.503  -1.544   1.360  0.00  0.00     0.158 C 
ATOM     26  C13 <0> d          -1.027  -2.675   1.528  0.00  0.00     0.086 A 
ATOM     27  C17 <0> d          -2.829  -4.284   1.596  0.00  0.00     0.032 A 
ATOM     28  N3  <0> d          -0.905  -1.325   1.433  0.00  0.00    -0.222 NA
ATOM     29  C14 <0> d          -0.103  -3.717   1.631  0.00  0.00     0.034 A 
ATOM     30  C15 <0> d          -0.545  -5.019   1.713  0.00  0.00     0.002 A 
ATOM     31  C16 <0> d          -1.903  -5.303   1.696  0.00  0.00     0.002 A 
ENDBRANCH  21  22
ENDBRANCH  19  21
ENDBRANCH   1  19
TORSDOF 6
ENDMDL
MODEL ZINC08983907
REMARK  7 active torsions:
REMARK  status: ('A' for Active; 'I' for Inactive)
REMARK    1  A    between atoms: C2_2  and  O1_3 
REMARK    2  A    between atoms: O1_3  and  C3_4 
REMARK    3  A    between atoms: C3_4  and  C4_6 
REMARK    4  A    between atoms: C9_11  and  N1_12 
REMARK       I    between atoms: N1_12  and  C10_13 
REMARK    5  A    between atoms: C10_13  and  C11_15 
REMARK    6  A    between atoms: C11_15  and  C12_16 
REMARK    7  A    between atoms: C12_16  and  C13_17 
ROOT
ATOM      1  N1  <0> d          -5.508  -1.016  -0.785  0.00  0.00    -0.326 N 
ATOM      2  C10 <0> d          -4.839   0.147  -0.648  0.00  0.00     0.222 C 
ATOM      3  O3  <0> d          -5.117   1.093  -1.354  0.00  0.00    -0.273 OA
ATOM      4  H10 <0> d          -5.243  -1.791  -0.266  0.00  0.00     0.169 HD
ENDROOT
BRANCH   1   5
ATOM      5  C9  <0> d          -6.578  -1.103  -1.671  0.00  0.00     0.051 A 
ATOM      6  C4  <0> d          -7.689  -1.901  -1.359  0.00  0.00     0.066 A 
ATOM      7  C5  <0> d          -8.757  -1.980  -2.257  0.00  0.00     0.020 A 
ATOM      8  C6  <0> d          -8.713  -1.275  -3.440  0.00  0.00     0.001 A 
ATOM      9  C7  <0> d          -7.615  -0.487  -3.745  0.00  0.00     0.002 A 
ATOM     10  C8  <0> d          -6.555  -0.395  -2.865  0.00  0.00     0.030 A 
BRANCH   6  11
ATOM     11  C3  <0> d          -7.729  -2.652  -0.091  0.00  0.00     0.295 C 
ATOM     12  O2  <0> d          -6.846  -2.506   0.730  0.00  0.00    -0.259 OA
BRANCH  11  13
ATOM     13  O1  <0> d          -8.746  -3.501   0.157  0.00  0.00    -0.318 OA
BRANCH  13  14
ATOM     14  C2  <0> d          -8.721  -4.207   1.425  0.00  0.00     0.174 C 
ATOM     15  C1  <0> d          -9.946  -5.118   1.527  0.00  0.00     0.034 C 
ENDBRANCH  13  14
ENDBRANCH  11  13
ENDBRANCH   6  11
ENDBRANCH   1   5
BRANCH   2  16
ATOM     16  C11 <0> d          -3.746   0.270   0.383  0.00  0.00     0.108 C 
BRANCH  16  17
ATOM     17  C12 <0> d          -3.154   1.680   0.331  0.00  0.00     0.052 C 
BRANCH  17  18
ATOM     18  C13 <0> d          -2.061   1.804   1.362  0.00  0.00     0.000 A 
ATOM     19  C15 <0> d          -2.173   2.196   2.653  0.00  0.00     0.083 A 
ATOM     20  O4  <0> d          -0.938   2.154   3.171  0.00  0.00    -0.217 OA
ATOM     21  C16 <0> d          -3.437   2.606   3.365  0.00  0.00     0.079 C 
ATOM     22  N2  <0> d          -0.126   1.785   2.355  0.00  0.00    -0.133 NA
ATOM     23  C14 <0> d          -0.682   1.534   1.205  0.00  0.00     0.067 A 
ATOM     24  C17 <0> d           0.007   1.056  -0.047  0.00  0.00     0.073 C 
ENDBRANCH  17  18
ENDBRANCH  16  17
ENDBRANCH   2  16
TORSDOF 7
ENDMDL
MODEL ZINC08991145
REMARK  2 active torsions:
REMARK  status: ('A' for Active; 'I' for Inactive)
REMARK    1  A    between atoms: C10_12  and  C11_13 
REMARK    2  A    between atoms: C11_13  and  C12_14 
REMARK       I    between atoms: C12_14  and  N1_16 
ROOT
ATOM      1  C1  <0> d          -2.560   5.374   0.059  0.00  0.00     0.050 C 
ATOM      2  C2  <0> d          -2.505   3.868   0.050  0.00  0.00    -0.036 A 
ATOM      3  C3  <0> d          -1.224   3.156   0.030  0.00  0.00     0.005 A 
ATOM      4  C4  <0> d          -0.013   3.855   0.018  0.00  0.00     0.024 A 
ATOM      5  C5  <0> d           1.174   3.175   0.003  0.00  0.00    -0.024 A 
ATOM      6  C6  <0> d           1.183   1.784   0.000  0.00  0.00     0.079 A 
ATOM      7  C7  <0> d          -0.013   1.076   0.008  0.00  0.00     0.075 A 
ATOM      8  C8  <0> d          -1.225   1.750   0.017  0.00  0.00     0.093 A 
ATOM      9  O1  <0> d          -2.385   1.065   0.031  0.00  0.00    -0.274 OA
ATOM     10  C9  <0> d          -3.552   1.717   0.050  0.00  0.00     0.295 A 
ATOM     11  O2  <0> d          -4.583   1.067   0.058  0.00  0.00    -0.259 OA
ATOM     12  C10 <0> d          -3.641   3.122   0.059  0.00  0.00     0.033 A 
ATOM     13  O4  <0> d           2.344   1.079  -0.003  0.00  0.00    -0.340 OA
ATOM     14  C22 <0> d           3.539   1.762  -0.384  0.00  0.00     0.061 C 
ATOM     15  C23 <0> d           3.622   3.072   0.410  0.00  0.00     0.042 C 
ATOM     16  C24 <0> d           2.457   3.968  -0.017  0.00  0.00     0.044 C 
ATOM     17  C25 <0> d           4.755   0.889  -0.067  0.00  0.00     0.046 C 
ATOM     18  C26 <0> d           3.502   2.070  -1.882  0.00  0.00     0.046 C 
ENDROOT
BRANCH  12  19
ATOM     19  C11 <0> d          -4.989   3.796   0.081  0.00  0.00     0.148 C 
BRANCH  19  20
ATOM     20  C12 <0> d          -5.456   4.030  -1.333  0.00  0.00     0.224 C 
ATOM     21  O3  <0> d          -4.763   3.683  -2.266  0.00  0.00    -0.273 OA
ATOM     22  N1  <0> d          -6.644   4.624  -1.560  0.00  0.00    -0.347 N 
ATOM     23  C21 <0> d          -7.509   5.049  -0.455  0.00  0.00     0.164 C 
ATOM     24  C13 <0> d          -7.130   4.867  -2.929  0.00  0.00     0.130 C 
ATOM     25  C20 <0> d          -8.933   4.659  -0.739  0.00  0.00    -0.034 A 
ATOM     26  C15 <0> d          -9.338   4.199  -1.972  0.00  0.00    -0.049 A 
ATOM     27  C19 <0> d          -9.855   4.774   0.293  0.00  0.00     0.009 A 
ATOM     28  C14 <0> d          -8.394   4.034  -3.133  0.00  0.00     0.059 C 
ATOM     29  C16 <0> d         -10.672   3.865  -2.174  0.00  0.00     0.008 A 
ATOM     30  C17 <0> d         -11.588   3.985  -1.150  0.00  0.00     0.001 A 
ATOM     31  C18 <0> d         -11.178   4.440   0.090  0.00  0.00     0.001 A 
ENDBRANCH  19  20
ENDBRANCH  12  19
TORSDOF 2
ENDMDL
MODEL ZINC38001080
REMARK  5 active torsions:
REMARK  status: ('A' for Active; 'I' for Inactive)
REMARK    1  A    between atoms: C2_2  and  N1_3 
REMARK    2  A    between atoms: N1_3  and  C3_4 
REMARK    3  A    between atoms: C3_4  and  C5_6 
REMARK    4  A    between atoms: C5_6  and  C6_7 
REMARK    5  A    between atoms: C6_7  and  C7_8 
ROOT
ATOM      1  C6  <0> d          -3.345  -2.122   1.510  0.00  0.00     0.042 C 
ENDROOT
BRANCH   1   2
ATOM      2  C5  <0> d          -2.785  -2.512   0.141  0.00  0.00     0.037 C 
BRANCH   2   3
ATOM      3  C3  <0> d          -1.356  -1.981   0.004  0.00  0.00     0.182 C 
ATOM      4  C4  <0> d          -0.752  -2.476  -1.312  0.00  0.00     0.040 C 
BRANCH   3   5
ATOM      5  N1  <0> d          -1.376  -0.512   0.012  0.00  0.00    -0.072 N 
ATOM      6  H7  <0> d          -1.848  -0.187   0.843  0.00  0.00     0.277 HD
ATOM      7  H18 <0> d          -1.864  -0.178  -0.805  0.00  0.00     0.277 HD
BRANCH   5   8
ATOM      8  C2  <0> d           0.002  -0.004   0.002  0.00  0.00     0.228 C 
ATOM      9  C1  <0> d          -0.019   1.526   0.010  0.00  0.00     0.034 C 
ENDBRANCH   5   8
ENDBRANCH   3   5
ENDBRANCH   2   3
ENDBRANCH   1   2
BRANCH   1  10
ATOM     10  C7  <0> d          -4.752  -2.644   1.645  0.00  0.00    -0.041 A 
ATOM     11  C12 <0> d          -4.970  -3.941   2.072  0.00  0.00     0.020 A 
ATOM     12  C11 <0> d          -6.261  -4.420   2.200  0.00  0.00     0.061 A 
ATOM     13 Br1  <0> d          -3.502  -5.059   2.488  0.00  0.00    -0.050 Br
ATOM     14  C10 <0> d          -7.335  -3.603   1.891  0.00  0.00     0.117 A 
ATOM     15  C9  <0> d          -7.115  -2.306   1.458  0.00  0.00     0.043 A 
ATOM     16  F1  <0> d          -8.597  -4.070   2.011  0.00  0.00    -0.206 F 
ATOM     17  C8  <0> d          -5.824  -1.828   1.335  0.00  0.00     0.011 A 
ENDBRANCH   1  10
TORSDOF 5
ENDMDL
MODEL ZINC09074039
REMARK  6 active torsions:
REMARK  status: ('A' for Active; 'I' for Inactive)
REMARK    1  A    between atoms: C2_2  and  C3_3 
REMARK    2  A    between atoms: C2_2  and  S1_15 
REMARK    3  A    between atoms: S1_15  and  C11_16 
REMARK    4  A    between atoms: N4_24  and  C18_25 
REMARK    5  A    between atoms: C18_25  and  C19_26 
REMARK    6  A    between atoms: C19_26  and  O2_27 
ROOT
ATOM      1  C1  <0> d          -3.537  -1.846   1.333  0.00  0.00     0.030 C 
ATOM      2  C2  <0> d          -4.087  -1.253   0.035  0.00  0.00     0.121 C 
ENDROOT
BRANCH   2   3
ATOM      3  C3  <0> d          -5.557  -1.565  -0.077  0.00  0.00     0.121 A 
ATOM      4  N2  <0> d          -6.401  -0.772   0.511  0.00  0.00    -0.233 NA
ATOM      5  C10 <0> d          -7.739  -0.989   0.455  0.00  0.00     0.074 A 
ATOM      6  C5  <0> d          -8.222  -2.106  -0.262  0.00  0.00     0.061 A 
ATOM      7  C9  <0> d          -8.647  -0.137   1.087  0.00  0.00     0.032 A 
ATOM      8  C4  <0> d          -7.240  -2.983  -0.917  0.00  0.00     0.259 A 
ATOM      9  C6  <0> d          -9.592  -2.350  -0.335  0.00  0.00     0.019 A 
ATOM     10  N1  <0> d          -5.932  -2.657  -0.791  0.00  0.00    -0.310 N 
ATOM     11  O1  <0> d          -7.590  -3.962  -1.550  0.00  0.00    -0.267 OA
ATOM     12  H2  <0> d          -5.256  -3.211  -1.213  0.00  0.00     0.170 HD
ATOM     13  C7  <0> d         -10.468  -1.495   0.297  0.00  0.00     0.001 A 
ATOM     14  C8  <0> d          -9.996  -0.395   1.003  0.00  0.00     0.002 A 
ENDBRANCH   2   3
BRANCH   2  15
ATOM     15  S1  <0> d          -3.849   0.541   0.042  0.00  0.00    -0.080 SA
BRANCH  15  16
ATOM     16  C11 <0> d          -2.089   0.617   0.025  0.00  0.00     0.170 A 
ATOM     17  N4  <0> d          -1.353   1.768   0.030  0.00  0.00    -0.322 N 
ATOM     18  C17 <0> d          -0.017   1.400   0.010  0.00  0.00     0.065 A 
ATOM     19  C12 <0> d           0.002  -0.004   0.002  0.00  0.00     0.086 A 
ATOM     20  C16 <0> d           1.175   2.109   0.002  0.00  0.00     0.032 A 
ATOM     21  N3  <0> d          -1.291  -0.422   0.012  0.00  0.00    -0.222 NA
ATOM     22  C13 <0> d           1.228  -0.675  -0.013  0.00  0.00     0.034 A 
ATOM     23  C14 <0> d           2.401   0.045  -0.020  0.00  0.00     0.002 A 
ATOM     24  C15 <0> d           2.377   1.431  -0.012  0.00  0.00     0.002 A 
BRANCH  17  25
ATOM     25  C18 <0> d          -1.877   3.135   0.044  0.00  0.00     0.158 C 
BRANCH  25  26
ATOM     26  C19 <0> d          -2.080   3.619  -1.393  0.00  0.00     0.187 C 
BRANCH  26  27
ATOM     27  O2  <0> d          -2.592   4.953  -1.379  0.00  0.00    -0.394 OA
ATOM     28  C20 <0> d          -2.818   5.503  -2.678  0.00  0.00     0.201 C 
ENDBRANCH  26  27
ENDBRANCH  25  26
ENDBRANCH  17  25
ENDBRANCH  15  16
ENDBRANCH   2  15
TORSDOF 6
ENDMDL
MODEL ZINC06169087
REMARK  7 active torsions:
REMARK  status: ('A' for Active; 'I' for Inactive)
REMARK    1  A    between atoms: C2_2  and  N1_3 
REMARK    2  A    between atoms: C3_4  and  C13_21 
REMARK    3  A    between atoms: C4_7  and  S1_8 
REMARK    4  A    between atoms: S1_8  and  C5_9 
REMARK    5  A    between atoms: C5_9  and  C6_10 
REMARK       I    between atoms: C6_10  and  N4_12 
REMARK    6  A    between atoms: N4_12  and  C7_13 
REMARK    7  A    between atoms: C18_26  and  O2_27 
ROOT
ATOM      1  N1  <0> d           0.271   1.624  -3.995  0.00  0.00    -0.307 N 
ATOM      2  C3  <0> d           1.121   0.738  -4.614  0.00  0.00     0.167 A 
ATOM      3  N2  <0> d           1.646  -0.013  -3.674  0.00  0.00    -0.128 NA
ATOM      4  N3  <0> d           1.192   0.341  -2.525  0.00  0.00    -0.122 NA
ATOM      5  C4  <0> d           0.343   1.335  -2.662  0.00  0.00     0.192 A 
ENDROOT
BRANCH   5   6
ATOM      6  S1  <0> d          -0.532   2.147  -1.366  0.00  0.00    -0.081 SA
BRANCH   6   7
ATOM      7  C5  <0> d           0.082   1.218   0.060  0.00  0.00     0.185 C 
BRANCH   7   8
ATOM      8  C6  <0> d          -0.549   1.754   1.319  0.00  0.00     0.231 C 
ATOM      9  O1  <0> d          -1.337   2.674   1.258  0.00  0.00    -0.272 OA
ATOM     10  N4  <0> d          -0.238   1.210   2.513  0.00  0.00    -0.326 N 
ATOM     11  H8  <0> d           0.444   0.523   2.570  0.00  0.00     0.169 HD
BRANCH  10  12
ATOM     12  C7  <0> d          -0.899   1.639   3.670  0.00  0.00     0.036 A 
ATOM     13  C12 <0> d          -2.228   2.035   3.605  0.00  0.00     0.056 A 
ATOM     14  C11 <0> d          -2.879   2.457   4.749  0.00  0.00     0.074 A 
ATOM     15  C10 <0> d          -2.205   2.485   5.960  0.00  0.00     0.138 A 
ATOM     16 Cl1  <0> d          -4.541   2.953   4.670  0.00  0.00    -0.081 Cl
ATOM     17  C9  <0> d          -0.880   2.091   6.026  0.00  0.00     0.046 A 
ATOM     18  F1  <0> d          -2.842   2.898   7.077  0.00  0.00    -0.204 F 
ATOM     19  C8  <0> d          -0.228   1.662   4.886  0.00  0.00     0.032 A 
ENDBRANCH  10  12
ENDBRANCH   7   8
ENDBRANCH   6   7
ENDBRANCH   5   6
BRANCH   1  20
ATOM     20  C2  <0> d          -0.543   2.663  -4.632  0.00  0.00     0.128 C 
ATOM     21  C1  <0> d           0.212   3.993  -4.602  0.00  0.00     0.027 C 
ENDBRANCH   1  20
BRANCH   2  22
ATOM     22  C13 <0> d           1.392   0.648  -6.064  0.00  0.00     0.045 A 
ATOM     23  C18 <0> d           2.711   0.583  -6.530  0.00  0.00     0.079 A 
ATOM     24  C17 <0> d           2.955   0.492  -7.891  0.00  0.00     0.037 A 
ATOM     25  C16 <0> d           1.901   0.478  -8.784  0.00  0.00     0.003 A 
ATOM     26  C15 <0> d           0.596   0.548  -8.328  0.00  0.00     0.001 A 
ATOM     27  C14 <0> d           0.336   0.632  -6.976  0.00  0.00     0.018 A 
BRANCH  23  28
ATOM     28  O2  <0> d           3.747   0.603  -5.652  0.00  0.00    -0.360 OA
ATOM     29  H16 <0> d           4.021  -0.273  -5.347  0.00  0.00     0.217 HD
ENDBRANCH  23  28
ENDBRANCH   2  22
TORSDOF 7
ENDMDL
MODEL ZINC89509194
REMARK  7 active torsions:
REMARK  status: ('A' for Active; 'I' for Inactive)
REMARK    1  A    between atoms: O1_2  and  C2_3 
REMARK    2  A    between atoms: C7_8  and  C8_9 
REMARK    3  A    between atoms: C8_9  and  C9_10 
REMARK    4  A    between atoms: C8_9  and  N1_15 
REMARK       I    between atoms: N1_15  and  C13_16 
REMARK    5  A    between atoms: C13_16  and  C14_18 
REMARK    6  A    between atoms: C14_18  and  C15_19 
REMARK    7  A    between atoms: C15_19  and  O4_25 
ROOT
ATOM      1  C8  <0> d          -0.246  -2.988  -0.095  0.00  0.00     0.178 C 
ENDROOT
BRANCH   1   2
ATOM      2  C7  <0> d           0.153  -2.244  -1.343  0.00  0.00     0.004 A 
ATOM      3  C2  <0> d           0.060  -0.860  -1.386  0.00  0.00     0.076 A 
ATOM      4  C3  <0> d           0.434  -0.177  -2.535  0.00  0.00     0.037 A 
ATOM      5  C4  <0> d           0.894  -0.877  -3.634  0.00  0.00     0.003 A 
ATOM      6  C5  <0> d           0.981  -2.256  -3.590  0.00  0.00     0.001 A 
ATOM      7  C6  <0> d           0.608  -2.939  -2.447  0.00  0.00     0.012 A 
BRANCH   3   8
ATOM      8  O1  <0> d          -0.392  -0.175  -0.303  0.00  0.00    -0.355 OA
ATOM      9  C1  <0> d          -0.462   1.248  -0.419  0.00  0.00     0.210 C 
ENDBRANCH   3   8
ENDBRANCH   1   2
BRANCH   1  10
ATOM     10  C9  <0> d          -1.733  -3.234  -0.112  0.00  0.00     0.080 A 
ATOM     11  O2  <0> d          -2.361  -4.206  -0.793  0.00  0.00    -0.325 OA
ATOM     12  C12 <0> d          -3.683  -4.126  -0.571  0.00  0.00     0.142 A 
ATOM     13  C11 <0> d          -3.914  -3.088   0.253  0.00  0.00     0.027 A 
ATOM     14  C10 <0> d          -2.657  -2.513   0.549  0.00  0.00     0.037 A 
ENDBRANCH   1  10
BRANCH   1  15
ATOM     15  N1  <0> d           0.460  -4.270  -0.044  0.00  0.00    -0.346 N 
ATOM     16  C13 <0> d           0.677  -4.873   1.142  0.00  0.00     0.221 C 
ATOM     17  O3  <0> d           0.287  -4.354   2.166  0.00  0.00    -0.273 OA
ATOM     18  H12 <0> d           0.771  -4.686  -0.863  0.00  0.00     0.163 HD
BRANCH  16  19
ATOM     19  C14 <0> d           1.403  -6.193   1.194  0.00  0.00     0.140 C 
BRANCH  19  20
ATOM     20  C15 <0> d           1.381  -6.730   2.627  0.00  0.00     0.066 C 
ATOM     21  C20 <0> d          -0.065  -6.994   3.050  0.00  0.00     0.038 C 
ATOM     22  C19 <0> d          -0.087  -7.532   4.482  0.00  0.00     0.003 C 
ATOM     23  C18 <0> d           0.711  -8.836   4.550  0.00  0.00     0.000 C 
ATOM     24  C17 <0> d           2.157  -8.572   4.127  0.00  0.00     0.003 C 
ATOM     25  C16 <0> d           2.179  -8.034   2.694  0.00  0.00     0.038 C 
BRANCH  20  26
ATOM     26  O4  <0> d           1.967  -5.768   3.506  0.00  0.00    -0.389 OA
ATOM     27  H25 <0> d           2.886  -5.551   3.296  0.00  0.00     0.210 HD
ENDBRANCH  20  26
ENDBRANCH  19  20
ENDBRANCH  16  19
ENDBRANCH   1  15
TORSDOF 7
ENDMDL
MODEL ZINC05689264
REMARK  7 active torsions:
REMARK  status: ('A' for Active; 'I' for Inactive)
REMARK    1  A    between atoms: C2_2  and  C3_3 
REMARK    2  A    between atoms: C2_2  and  O3_18 
REMARK       I    between atoms: C3_3  and  N1_5 
REMARK    3  A    between atoms: N1_5  and  C4_6 
REMARK    4  A    between atoms: C7_9  and  N2_12 
REMARK    5  A    between atoms: O3_18  and  C14_19 
REMARK    6  A    between atoms: C14_19  and  C15_21 
REMARK    7  A    between atoms: C18_24  and  O5_28 
ROOT
ATOM      1  C3  <0> d          -3.470   2.600  -5.199  0.00  0.00     0.251 C 
ATOM      2  O1  <0> d          -3.349   1.402  -5.053  0.00  0.00    -0.270 OA
ATOM      3  N1  <0> d          -2.976   3.446  -4.274  0.00  0.00    -0.325 N 
ATOM      4  H5  <0> d          -3.139   4.399  -4.351  0.00  0.00     0.169 HD
ENDROOT
BRANCH   1   5
ATOM      5  C2  <0> d          -4.173   3.143  -6.417  0.00  0.00     0.220 C 
ATOM      6  C1  <0> d          -3.179   3.931  -7.271  0.00  0.00     0.050 C 
BRANCH   5   7
ATOM      7  O3  <0> d          -4.713   2.042  -7.195  0.00  0.00    -0.303 OA
BRANCH   7   8
ATOM      8  C14 <0> d          -5.832   2.286  -7.906  0.00  0.00     0.297 C 
ATOM      9  O4  <0> d          -6.341   3.389  -7.877  0.00  0.00    -0.259 OA
BRANCH   8  10
ATOM     10  C15 <0> d          -6.436   1.216  -8.719  0.00  0.00     0.078 A 
ATOM     11  C20 <0> d          -7.601   1.466  -9.455  0.00  0.00     0.135 A 
ATOM     12  C19 <0> d          -8.159   0.460 -10.219  0.00  0.00     0.080 A 
ATOM     13  F1  <0> d          -8.175   2.688  -9.421  0.00  0.00    -0.205 F 
ATOM     14  C18 <0> d          -7.572  -0.798 -10.249  0.00  0.00     0.071 A 
ATOM     15  C17 <0> d          -6.418  -1.050  -9.515  0.00  0.00     0.038 A 
ATOM     16  C16 <0> d          -5.851  -0.054  -8.755  0.00  0.00     0.023 A 
BRANCH  14  17
ATOM     17  O5  <0> d          -8.128  -1.785 -10.996  0.00  0.00    -0.356 OA
ATOM     18  C21 <0> d          -9.312  -1.458 -11.725  0.00  0.00     0.210 C 
ENDBRANCH  14  17
ENDBRANCH   8  10
ENDBRANCH   7   8
ENDBRANCH   5   7
ENDBRANCH   1   5
BRANCH   3  19
ATOM     19  C4  <0> d          -2.227   2.948  -3.199  0.00  0.00     0.034 A 
ATOM     20  C9  <0> d          -2.293   3.570  -1.959  0.00  0.00     0.031 A 
ATOM     21  C8  <0> d          -1.559   3.077  -0.899  0.00  0.00     0.026 A 
ATOM     22  C7  <0> d          -0.746   1.965  -1.075  0.00  0.00     0.010 A 
ATOM     23  C6  <0> d          -0.679   1.343  -2.316  0.00  0.00     0.026 A 
ATOM     24  C5  <0> d          -1.418   1.833  -3.374  0.00  0.00     0.031 A 
BRANCH  22  25
ATOM     25  N2  <0> d           0.002   1.468  -0.003  0.00  0.00    -0.279 NA
ATOM     26  C13 <0> d          -0.215   2.273   1.208  0.00  0.00     0.122 C 
ATOM     27  C12 <0> d           0.665   1.732   2.338  0.00  0.00     0.182 C 
ATOM     28  O2  <0> d           0.369   0.349   2.547  0.00  0.00    -0.389 OA
ATOM     29  C11 <0> d           0.571  -0.464   1.387  0.00  0.00     0.182 C 
ATOM     30  C10 <0> d          -0.311   0.054   0.248  0.00  0.00     0.122 C 
ENDBRANCH  22  25
ENDBRANCH   3  19
TORSDOF 7
ENDMDL
MODEL ZINC09134509
REMARK  4 active torsions:
REMARK  status: ('A' for Active; 'I' for Inactive)
REMARK    1  A    between atoms: C11_13  and  N2_18 
REMARK       I    between atoms: N2_18  and  C15_19 
REMARK    2  A    between atoms: C15_19  and  C16_21 
REMARK    3  A    between atoms: C16_21  and  O4_22 
REMARK    4  A    between atoms: O4_22  and  C17_23 
ROOT
ATOM      1  C1  <0> d           4.121  -0.272  -0.433  0.00  0.00     0.160 C 
ATOM      2  N1  <0> d           2.769   0.265  -0.610  0.00  0.00    -0.316 N 
ATOM      3  C2  <0> d           1.904  -0.465  -1.424  0.00  0.00     0.071 A 
ATOM      4  C3  <0> d           2.413  -1.080  -2.563  0.00  0.00     0.033 A 
ATOM      5  C4  <0> d           1.599  -1.871  -3.350  0.00  0.00     0.002 A 
ATOM      6  C5  <0> d           0.272  -2.054  -3.010  0.00  0.00     0.003 A 
ATOM      7  C6  <0> d          -0.246  -1.433  -1.889  0.00  0.00     0.039 A 
ATOM      8  C7  <0> d           0.563  -0.626  -1.100  0.00  0.00     0.103 A 
ATOM      9  O1  <0> d           0.020  -0.004  -0.025  0.00  0.00    -0.307 OA
ATOM     10  C8  <0> d          -0.003   1.349  -0.011  0.00  0.00     0.092 A 
ATOM     11  C9  <0> d          -1.222   2.013   0.007  0.00  0.00     0.040 A 
ATOM     12  C10 <0> d          -1.262   3.392  -0.010  0.00  0.00     0.032 A 
ATOM     13  C11 <0> d          -0.082   4.128  -0.047  0.00  0.00     0.035 A 
ATOM     14  C12 <0> d           1.140   3.479  -0.053  0.00  0.00     0.049 A 
ATOM     15  C13 <0> d           1.188   2.082  -0.021  0.00  0.00     0.068 A 
ATOM     16  C14 <0> d           2.488   1.397   0.020  0.00  0.00     0.261 C 
ATOM     17  O2  <0> d           3.371   1.907   0.682  0.00  0.00    -0.267 OA
ENDROOT
BRANCH  13  18
ATOM     18  N2  <0> d          -0.131   5.528  -0.077  0.00  0.00    -0.325 N 
ATOM     19  C15 <0> d           0.811   6.249   0.562  0.00  0.00     0.246 C 
ATOM     20  O3  <0> d           1.747   5.689   1.093  0.00  0.00    -0.271 OA
ATOM     21  H11 <0> d          -0.843   5.978  -0.558  0.00  0.00     0.169 HD
BRANCH  19  22
ATOM     22  C16 <0> d           0.701   7.751   0.618  0.00  0.00     0.278 C 
BRANCH  22  23
ATOM     23  O4  <0> d           1.811   8.283   1.344  0.00  0.00    -0.339 OA
BRANCH  23  24
ATOM     24  C17 <0> d           1.864   9.634   1.488  0.00  0.00     0.107 A 
ATOM     25  C22 <0> d           2.915  10.219   2.183  0.00  0.00     0.149 A 
ATOM     26  C21 <0> d           2.966  11.594   2.326  0.00  0.00     0.045 A 
ATOM     27  F1  <0> d           3.885   9.447   2.718  0.00  0.00    -0.203 F 
ATOM     28  C20 <0> d           1.973  12.385   1.778  0.00  0.00     0.003 A 
ATOM     29  C19 <0> d           0.926  11.803   1.086  0.00  0.00     0.003 A 
ATOM     30  C18 <0> d           0.873  10.431   0.935  0.00  0.00     0.040 A 
ENDBRANCH  23  24
ENDBRANCH  22  23
ENDBRANCH  19  22
ENDBRANCH  13  18
TORSDOF 4
ENDMDL
MODEL ZINC89764641
REMARK  3 active torsions:
REMARK  status: ('A' for Active; 'I' for Inactive)
REMARK    1  A    between atoms: C2_2  and  N2_8 
REMARK    2  A    between atoms: N3_12  and  C11_15 
REMARK    3  A    between atoms: C11_15  and  C12_16 
REMARK       I    between atoms: C12_16  and  N4_18 
ROOT
ATOM      1  N2  <0> d           1.029   3.002   0.428  0.00  0.00    -0.378 N 
ATOM      2  C6  <0> d          -0.345   3.534   0.530  0.00  0.00     0.124 C 
ATOM      3  C7  <0> d          -0.385   4.802   1.401  0.00  0.00     0.047 C 
ATOM      4  C8  <0> d           0.539   4.629   2.586  0.00  0.00     0.237 C 
ATOM      5  N3  <0> d           1.851   5.185   2.259  0.00  0.00    -0.061 N 
ATOM      6  C9  <0> d           2.739   4.285   1.628  0.00  0.00     0.255 C 
ATOM      7  C10 <0> d           2.182   3.862   0.255  0.00  0.00     0.150 C 
ATOM      8  H24 <0> d           1.718   5.979   1.651  0.00  0.00     0.280 HD
ENDROOT
BRANCH   5   9
ATOM      9  C11 <0> d           2.476   5.659   3.501  0.00  0.00     0.337 C 
BRANCH   9  10
ATOM     10  C12 <0> d           1.678   6.810   4.058  0.00  0.00     0.245 C 
ATOM     11  O1  <0> d           0.758   7.276   3.418  0.00  0.00    -0.272 OA
ATOM     12  N4  <0> d           1.986   7.322   5.266  0.00  0.00    -0.351 N 
ATOM     13  C16 <0> d           1.292   8.442   5.927  0.00  0.00     0.126 C 
ATOM     14  C13 <0> d           3.074   6.859   6.140  0.00  0.00     0.126 C 
ATOM     15  C15 <0> d           1.567   8.238   7.440  0.00  0.00     0.021 C 
ATOM     16  C14 <0> d           3.029   7.719   7.421  0.00  0.00     0.021 C 
ENDBRANCH   9  10
ENDBRANCH   5   9
BRANCH   1  17
ATOM     17  C2  <0> d           1.225   1.621   0.508  0.00  0.00     0.051 A 
ATOM     18  C1  <0> d           0.136   0.754   0.546  0.00  0.00     0.074 A 
ATOM     19  C5  <0> d           0.382  -0.608   0.625  0.00  0.00     0.136 A 
ATOM     20  C4  <0> d           1.691  -1.058   0.662  0.00  0.00     0.158 A 
ATOM     21  F1  <0> d          -0.644  -1.487   0.664  0.00  0.00    -0.205 F 
ATOM     22  N1  <0> d           2.700  -0.209   0.625  0.00  0.00    -0.268 NA
ATOM     23  C3  <0> d           2.509   1.093   0.550  0.00  0.00     0.145 A 
ENDBRANCH   1  17
TORSDOF 3
ENDMDL
MODEL ZINC06529535
REMARK  7 active torsions:
REMARK  status: ('A' for Active; 'I' for Inactive)
REMARK    1  A    between atoms: C4_4  and  C7_7 
REMARK    2  A    between atoms: C7_7  and  N1_8 
REMARK       I    between atoms: N1_8  and  C8_9 
REMARK       I    between atoms: C8_9  and  N2_11 
REMARK       I    between atoms: N2_11  and  C9_12 
REMARK    3  A    between atoms: C9_12  and  C10_14 
REMARK    4  A    between atoms: C10_14  and  O3_15 
REMARK    5  A    between atoms: O3_15  and  C11_16 
REMARK    6  A    between atoms: C11_16  and  C12_18 
REMARK    7  A    between atoms: C15_21  and  N3_24 
ROOT
ATOM      1  C10 <0> d           7.335  -2.714   4.480  0.00  0.00     0.282 C 
ENDROOT
BRANCH   1   2
ATOM      2  C9  <0> d           6.891  -2.446   3.065  0.00  0.00     0.249 C 
ATOM      3  N2  <0> d           5.733  -1.796   2.834  0.00  0.00    -0.277 N 
ATOM      4  C8  <0> d           5.335  -1.556   1.569  0.00  0.00     0.323 C 
ATOM      5  H9  <0> d           5.186  -1.501   3.579  0.00  0.00     0.173 HD
ATOM      6  N1  <0> d           4.178  -0.906   1.338  0.00  0.00    -0.339 N 
ATOM      7  O1  <0> d           6.021  -1.927   0.636  0.00  0.00    -0.247 OA
ATOM      8  H8  <0> d           3.630  -0.611   2.083  0.00  0.00     0.164 HD
ATOM      9  O2  <0> d           7.575  -2.815   2.135  0.00  0.00    -0.271 OA
BRANCH   6  10
ATOM     10  C7  <0> d           3.745  -0.646  -0.037  0.00  0.00     0.162 C 
BRANCH  10  11
ATOM     11  C4  <0> d           2.430   0.089  -0.020  0.00  0.00    -0.040 A 
ATOM     12  C3  <0> d           2.410   1.471   0.003  0.00  0.00     0.009 A 
ATOM     13  C2  <0> d           1.203   2.145   0.018  0.00  0.00     0.001 A 
ATOM     14  C1  <0> d           0.016   1.437   0.010  0.00  0.00     0.000 A 
ATOM     15  C6  <0> d           0.036   0.055  -0.013  0.00  0.00     0.001 A 
ATOM     16  C5  <0> d           1.242  -0.619  -0.027  0.00  0.00     0.009 A 
ENDBRANCH  10  11
ENDBRANCH   6  10
ENDBRANCH   1   2
BRANCH   1  17
ATOM     17  O3  <0> d           8.583  -3.411   4.463  0.00  0.00    -0.308 OA
BRANCH  17  18
ATOM     18  C11 <0> d           9.122  -3.729   5.657  0.00  0.00     0.293 C 
ATOM     19  O4  <0> d           8.548  -3.423   6.684  0.00  0.00    -0.259 OA
BRANCH  18  20
ATOM     20  C12 <0> d          10.408  -4.448   5.717  0.00  0.00     0.039 A 
ATOM     21  C17 <0> d          10.969  -4.778   6.954  0.00  0.00     0.020 A 
ATOM     22  C16 <0> d          12.166  -5.455   7.006  0.00  0.00     0.031 A 
ATOM     23  C15 <0> d          12.825  -5.799   5.830  0.00  0.00     0.037 A 
ATOM     24  C14 <0> d          12.272  -5.467   4.597  0.00  0.00     0.031 A 
ATOM     25  C13 <0> d          11.072  -4.796   4.537  0.00  0.00     0.020 A 
BRANCH  23  26
ATOM     26  N3  <0> d          14.040  -6.479   5.887  0.00  0.00    -0.318 N 
ATOM     27  C21 <0> d          14.696  -6.952   4.813  0.00  0.00     0.224 C 
ATOM     28  C20 <0> d          15.974  -7.638   5.243  0.00  0.00     0.105 C 
ATOM     29  O5  <0> d          14.320  -6.841   3.665  0.00  0.00    -0.273 OA
ATOM     30  C19 <0> d          15.779  -7.882   6.758  0.00  0.00     0.029 C 
ATOM     31  C18 <0> d          14.766  -6.777   7.128  0.00  0.00     0.133 C 
ENDBRANCH  23  26
ENDBRANCH  18  20
ENDBRANCH  17  18
ENDBRANCH   1  17
TORSDOF 7
ENDMDL
MODEL ZINC89949164
REMARK  4 active torsions:
REMARK  status: ('A' for Active; 'I' for Inactive)
REMARK    1  A    between atoms: C2_2  and  C3_3 
REMARK       I    between atoms: N1_5  and  C17_20 
REMARK    2  A    between atoms: C7_8  and  N2_9 
REMARK    3  A    between atoms: N2_9  and  C8_10 
REMARK    4  A    between atoms: C8_10  and  C9_11 
ROOT
ATOM      1  N2  <0> d          -0.778  -2.434  -1.343  0.00  0.00    -0.067 N 
ATOM      2  H14 <0> d          -1.251  -2.042  -0.543  0.00  0.00     0.278 HD
ATOM      3  H25 <0> d          -1.216  -2.102  -2.189  0.00  0.00     0.278 HD
ENDROOT
BRANCH   1   4
ATOM      4  C7  <0> d           0.632  -2.024  -1.328  0.00  0.00     0.193 C 
ATOM      5  C3  <0> d           0.718  -0.497  -1.257  0.00  0.00     0.034 C 
ATOM      6  C4  <0> d           2.190  -0.074  -1.207  0.00  0.00     0.132 C 
ATOM      7  N1  <0> d           2.891  -0.665  -2.355  0.00  0.00    -0.352 N 
ATOM      8  C5  <0> d           2.799  -2.116  -2.569  0.00  0.00     0.128 C 
ATOM      9  C17 <0> d           3.604   0.109  -3.196  0.00  0.00     0.215 C 
ATOM     10  C6  <0> d           1.320  -2.516  -2.603  0.00  0.00     0.053 C 
ATOM     11  O1  <0> d           3.672   1.306  -3.009  0.00  0.00    -0.274 OA
ATOM     12  C18 <0> d           4.318  -0.512  -4.370  0.00  0.00     0.117 C 
BRANCH   5  13
ATOM     13  C2  <0> d           0.002  -0.004   0.002  0.00  0.00     0.004 C 
ATOM     14  C1  <0> d          -0.019   1.526   0.010  0.00  0.00     0.005 C 
ENDBRANCH   5  13
ENDBRANCH   1   4
BRANCH   1  15
ATOM     15  C8  <0> d          -0.862  -3.900  -1.291  0.00  0.00     0.272 C 
BRANCH  15  16
ATOM     16  C9  <0> d          -2.309  -4.321  -1.306  0.00  0.00    -0.015 A 
ATOM     17  C12 <0> d          -3.050  -4.362  -2.558  0.00  0.00    -0.011 A 
ATOM     18  C11 <0> d          -4.394  -4.777  -2.434  0.00  0.00     0.015 A 
ATOM     19  C13 <0> d          -2.601  -4.050  -3.863  0.00  0.00     0.013 A 
ATOM     20  S1  <0> d          -4.581  -5.067  -0.694  0.00  0.00    -0.101 SA
ATOM     21  C16 <0> d          -5.234  -4.876  -3.522  0.00  0.00     0.019 A 
ATOM     22  C10 <0> d          -2.929  -4.656  -0.165  0.00  0.00     0.060 A 
ATOM     23  C15 <0> d          -4.760  -4.553  -4.779  0.00  0.00     0.001 A 
ATOM     24  C14 <0> d          -3.441  -4.146  -4.929  0.00  0.00     0.001 A 
ENDBRANCH  15  16
ENDBRANCH   1  15
TORSDOF 4
ENDMDL
MODEL ZINC09236382
REMARK  4 active torsions:
REMARK  status: ('A' for Active; 'I' for Inactive)
REMARK    1  A    between atoms: C4_8  and  C14_24 
REMARK    2  A    between atoms: C5_9  and  C6_11 
REMARK       I    between atoms: C6_11  and  N5_13 
REMARK    3  A    between atoms: N5_13  and  C7_14 
REMARK    4  A    between atoms: C11_18  and  C13_20 
ROOT
ATOM      1  C1  <0> d           3.620  -2.712  -0.384  0.00  0.00     0.095 C 
ATOM      2  C2  <0> d           3.282  -1.436  -1.111  0.00  0.00     0.141 A 
ATOM      3  N1  <0> d           3.468  -1.197  -2.380  0.00  0.00    -0.133 NA
ATOM      4  N2  <0> d           3.073  -0.006  -2.670  0.00  0.00    -0.121 NA
ATOM      5  C3  <0> d           2.618   0.574  -1.595  0.00  0.00     0.207 A 
ATOM      6  N3  <0> d           2.725  -0.316  -0.564  0.00  0.00    -0.237 N 
ATOM      7  N4  <0> d           2.350  -0.122   0.727  0.00  0.00    -0.219 NA
ATOM      8  C4  <0> d           2.266   1.288   1.110  0.00  0.00     0.133 C 
ATOM      9  C5  <0> d           1.247   2.023   0.230  0.00  0.00     0.171 C 
ATOM     10  S1  <0> d           1.973   2.209  -1.427  0.00  0.00    -0.072 SA
ATOM     11  H6  <0> d           1.487  -0.604   0.929  0.00  0.00     0.148 HD
ENDROOT
BRANCH   9  12
ATOM     12  C6  <0> d          -0.025   1.219   0.141  0.00  0.00     0.238 C 
ATOM     13  O1  <0> d          -0.190   0.443  -0.776  0.00  0.00    -0.272 OA
ATOM     14  N5  <0> d          -0.982   1.366   1.079  0.00  0.00    -0.326 N 
ATOM     15  H7  <0> d          -0.884   2.040   1.770  0.00  0.00     0.169 HD
BRANCH  14  16
ATOM     16  C7  <0> d          -2.115   0.546   1.057  0.00  0.00     0.035 A 
ATOM     17  C12 <0> d          -2.017  -0.765   0.611  0.00  0.00     0.045 A 
ATOM     18  C11 <0> d          -3.137  -1.573   0.591  0.00  0.00     0.050 A 
ATOM     19  C10 <0> d          -4.356  -1.076   1.014  0.00  0.00     0.016 A 
ATOM     20  C9  <0> d          -4.458   0.229   1.459  0.00  0.00     0.003 A 
ATOM     21  C8  <0> d          -3.340   1.040   1.487  0.00  0.00     0.029 A 
BRANCH  18  22
ATOM     22  C13 <0> d          -3.031  -2.996   0.106  0.00  0.00     0.417 C 
ATOM     23  F1  <0> d          -2.733  -3.835   1.185  0.00  0.00    -0.166 F 
ATOM     24  F2  <0> d          -4.247  -3.386  -0.466  0.00  0.00    -0.166 F 
ATOM     25  F3  <0> d          -2.015  -3.088  -0.851  0.00  0.00    -0.166 F 
ENDBRANCH  18  22
ENDBRANCH  14  16
ENDBRANCH   9  12
BRANCH   8  26
ATOM     26  C14 <0> d           1.838   1.383   2.552  0.00  0.00    -0.037 A 
ATOM     27  C19 <0> d           2.427   2.314   3.388  0.00  0.00     0.009 A 
ATOM     28  C18 <0> d           2.035   2.401   4.710  0.00  0.00     0.001 A 
ATOM     29  C17 <0> d           1.054   1.558   5.198  0.00  0.00     0.000 A 
ATOM     30  C16 <0> d           0.465   0.628   4.362  0.00  0.00     0.001 A 
ATOM     31  C15 <0> d           0.854   0.543   3.038  0.00  0.00     0.009 A 
ENDBRANCH   8  26
TORSDOF 4
ENDMDL
MODEL ZINC91305427
REMARK  3 active torsions:
REMARK  status: ('A' for Active; 'I' for Inactive)
REMARK    1  A    between atoms: C2_2  and  C4_4 
REMARK    2  A    between atoms: N1_6  and  C9_12 
REMARK    3  A    between atoms: C7_8  and  C8_9 
ROOT
ATOM      1  C4  <0> d          -1.433  -0.534   0.013  0.00  0.00     0.023 C 
ATOM      2  C5  <0> d          -1.456  -2.078  -0.111  0.00  0.00     0.129 C 
ATOM      3  N1  <0> d          -2.776  -2.390  -0.689  0.00  0.00    -0.377 N 
ATOM      4  C6  <0> d          -3.259  -1.212  -1.425  0.00  0.00     0.139 C 
ATOM      5  C7  <0> d          -2.194  -0.106  -1.270  0.00  0.00     0.110 C 
ENDROOT
BRANCH   3   6
ATOM      6  C9  <0> d          -3.453  -3.601  -0.561  0.00  0.00     0.072 A 
ATOM      7  C13 <0> d          -3.268  -4.627  -1.491  0.00  0.00     0.158 A 
ATOM      8  C12 <0> d          -3.954  -5.814  -1.324  0.00  0.00     0.132 A 
ATOM      9  F1  <0> d          -2.428  -4.462  -2.535  0.00  0.00    -0.202 F 
ATOM     10  N2  <0> d          -4.782  -5.979  -0.309  0.00  0.00    -0.372 N 
ATOM     11  C11 <0> d          -4.986  -5.032   0.587  0.00  0.00     0.090 A 
ATOM     12  H17 <0> d          -5.254  -6.822  -0.218  0.00  0.00     0.164 HD
ATOM     13  C10 <0> d          -4.335  -3.819   0.495  0.00  0.00     0.049 A 
ENDBRANCH   3   6
BRANCH   1  14
ATOM     14  C2  <0> d           0.002  -0.004   0.002  0.00  0.00    -0.016 C 
ATOM     15  C1  <0> d          -0.019   1.526   0.010  0.00  0.00     0.010 C 
ATOM     16  C3  <0> d           0.742  -0.511   1.242  0.00  0.00     0.010 C 
ENDBRANCH   1  14
BRANCH   5  17
ATOM     17  C8  <0> d          -2.845   1.240  -1.081  0.00  0.00     0.179 C 
ATOM     18  O1  <0> d          -2.839   2.053  -1.989  0.00  0.00    -0.648 OA
ATOM     19  O2  <0> d          -3.378   1.515  -0.019  0.00  0.00    -0.648 OA
ENDBRANCH   5  17
TORSDOF 3
ENDMDL
MODEL ZINC91481248
REMARK  6 active torsions:
REMARK  status: ('A' for Active; 'I' for Inactive)
REMARK    1  A    between atoms: C6_6  and  C7_7 
REMARK    2  A    between atoms: C7_7  and  C8_8 
REMARK    3  A    between atoms: C8_8  and  C9_9 
REMARK    4  A    between atoms: C8_8  and  C15_18 
REMARK    5  A    between atoms: C9_9  and  N1_10 
REMARK    6  A    between atoms: N1_10  and  C10_11 
REMARK       I    between atoms: C15_18  and  N3_20 
ROOT
ATOM      1  C8  <0> d          -1.812  -0.931  -1.417  0.00  0.00     0.099 C 
ENDROOT
BRANCH   1   2
ATOM      2  C7  <0> d          -1.382  -0.702   0.033  0.00  0.00     0.054 C 
BRANCH   2   3
ATOM      3  C6  <0> d          -0.042  -0.013   0.057  0.00  0.00    -0.057 A 
ATOM      4  C1  <0> d           0.030   1.363  -0.057  0.00  0.00     0.010 A 
ATOM      5  C2  <0> d           1.258   1.995  -0.035  0.00  0.00     0.043 A 
ATOM      6  C3  <0> d           2.418   1.250   0.102  0.00  0.00     0.116 A 
ATOM      7  C4  <0> d           2.344  -0.128   0.215  0.00  0.00     0.043 A 
ATOM      8  F1  <0> d           3.619   1.868   0.123  0.00  0.00    -0.206 F 
ATOM      9  C5  <0> d           1.115  -0.758   0.193  0.00  0.00     0.010 A 
ENDBRANCH   2   3
ENDBRANCH   1   2
BRANCH   1  10
ATOM     10  C9  <0> d          -3.232  -1.500  -1.445  0.00  0.00     0.135 C 
BRANCH  10  11
ATOM     11  N1  <0> d          -3.692  -1.598  -2.832  0.00  0.00    -0.374 N 
ATOM     12  H10 <0> d          -3.087  -1.383  -3.560  0.00  0.00     0.161 HD
BRANCH  11  13
ATOM     13  C10 <0> d          -4.994  -2.001  -3.106  0.00  0.00     0.123 A 
ATOM     14  N2  <0> d          -5.403  -2.089  -4.362  0.00  0.00    -0.242 NA
ATOM     15  C14 <0> d          -6.629  -2.472  -4.666  0.00  0.00     0.142 A 
ATOM     16  C13 <0> d          -7.538  -2.787  -3.675  0.00  0.00     0.051 A 
ATOM     17  C12 <0> d          -7.150  -2.703  -2.344  0.00  0.00     0.029 A 
ATOM     18 Cl1  <0> d          -9.149  -3.284  -4.089  0.00  0.00    -0.083 Cl
ATOM     19  C11 <0> d          -5.857  -2.304  -2.058  0.00  0.00     0.052 A 
ENDBRANCH  11  13
ENDBRANCH  10  11
ENDBRANCH   1  10
BRANCH   1  20
ATOM     20  C15 <0> d          -0.868  -1.907  -2.072  0.00  0.00     0.221 C 
ATOM     21  O1  <0> d          -1.040  -3.100  -1.939  0.00  0.00    -0.273 OA
ATOM     22  N3  <0> d           0.168  -1.453  -2.806  0.00  0.00    -0.370 N 
ATOM     23  H14 <0> d           0.348  -0.501  -2.854  0.00  0.00     0.159 HD
ATOM     24  H15 <0> d           0.733  -2.078  -3.286  0.00  0.00     0.159 HD
ENDBRANCH   1  20
TORSDOF 6
ENDMDL
MODEL ZINC91486909
REMARK  7 active torsions:
REMARK  status: ('A' for Active; 'I' for Inactive)
REMARK    1  A    between atoms: C7_7  and  C8_8 
REMARK    2  A    between atoms: C11_11  and  C14_14 
REMARK       I    between atoms: C14_14  and  N1_16 
REMARK    3  A    between atoms: C17_19  and  N2_26 
REMARK    4  A    between atoms: C18_20  and  C20_22 
REMARK    5  A    between atoms: C20_22  and  C21_23 
REMARK    6  A    between atoms: C21_23  and  C22_24 
REMARK    7  A    between atoms: C22_24  and  O2_25 
ROOT
ATOM      1  C14 <0> d           0.033   2.114   6.194  0.00  0.00     0.253 C 
ATOM      2  O1  <0> d           0.870   2.969   6.407  0.00  0.00    -0.267 OA
ATOM      3  N1  <0> d          -0.908   1.846   7.122  0.00  0.00    -0.347 N 
ATOM      4  C15 <0> d          -1.872   0.756   6.918  0.00  0.00     0.128 C 
ATOM      5  C16 <0> d          -3.289   1.313   7.083  0.00  0.00     0.053 C 
ATOM      6  C17 <0> d          -3.405   2.008   8.441  0.00  0.00     0.194 C 
ATOM      7  C18 <0> d          -2.416   3.175   8.505  0.00  0.00     0.034 C 
ATOM      8  C19 <0> d          -0.986   2.635   8.359  0.00  0.00     0.132 C 
ENDROOT
BRANCH   1   9
ATOM      9  C11 <0> d           0.046   1.368   4.919  0.00  0.00     0.032 A 
ATOM     10  C10 <0> d           0.007  -0.028   4.925  0.00  0.00     0.018 A 
ATOM     11  C9  <0> d           0.019  -0.722   3.736  0.00  0.00     0.013 A 
ATOM     12  C8  <0> d           0.070  -0.032   2.526  0.00  0.00    -0.025 A 
ATOM     13  C13 <0> d           0.114   1.363   2.518  0.00  0.00     0.013 A 
ATOM     14  C12 <0> d           0.096   2.059   3.706  0.00  0.00     0.018 A 
BRANCH  12  15
ATOM     15  C7  <0> d           0.082  -0.780   1.246  0.00  0.00    -0.020 A 
ATOM     16  C2  <0> d           0.979  -1.831   1.059  0.00  0.00    -0.051 A 
ATOM     17  C1  <0> d           1.938  -2.209   2.158  0.00  0.00     0.049 C 
ATOM     18  C3  <0> d           0.982  -2.528  -0.133  0.00  0.00     0.007 A 
ATOM     19  C4  <0> d           0.103  -2.181  -1.142  0.00  0.00     0.001 A 
ATOM     20  C5  <0> d          -0.785  -1.135  -0.965  0.00  0.00     0.001 A 
ATOM     21  C6  <0> d          -0.798  -0.431   0.222  0.00  0.00     0.013 A 
ENDBRANCH  12  15
ENDBRANCH   1   9
BRANCH   7  22
ATOM     22  C20 <0> d          -2.714   4.159   7.372  0.00  0.00     0.010 C 
BRANCH  22  23
ATOM     23  C21 <0> d          -1.809   5.384   7.509  0.00  0.00     0.027 C 
BRANCH  23  24
ATOM     24  C22 <0> d          -2.106   6.368   6.376  0.00  0.00     0.164 C 
BRANCH  24  25
ATOM     25  O2  <0> d          -1.261   7.513   6.505  0.00  0.00    -0.401 OA
ATOM     26  H26 <0> d          -1.395   8.180   5.818  0.00  0.00     0.209 HD
ENDBRANCH  24  25
ENDBRANCH  23  24
ENDBRANCH  22  23
ENDBRANCH   7  22
BRANCH   6  27
ATOM     27  N2  <0> d          -4.772   2.515   8.617  0.00  0.00    -0.074 N 
ATOM     28  C23 <0> d          -5.721   1.395   8.557  0.00  0.00     0.269 C 
ATOM     29  C24 <0> d          -4.883   3.182   9.921  0.00  0.00     0.269 C 
ATOM     30  H33 <0> d          -4.983   3.174   7.883  0.00  0.00     0.279 HD
ENDBRANCH   6  27
TORSDOF 7
ENDMDL
MODEL ZINC09347811
REMARK  2 active torsions:
REMARK  status: ('A' for Active; 'I' for Inactive)
REMARK    1  A    between atoms: N1_5  and  C5_7 
REMARK    2  A    between atoms: C17_24  and  C18_25 
ROOT
ATOM      1  C1  <0> d           2.485   0.170   1.839  0.00  0.00     0.073 C 
ATOM      2  C2  <0> d           2.487   1.234   0.773  0.00  0.00     0.063 A 
ATOM      3  C3  <0> d           1.399   1.611  -0.003  0.00  0.00     0.034 A 
ATOM      4  C4  <0> d           1.803   2.605  -0.850  0.00  0.00     0.182 A 
ATOM      5  N1  <0> d           3.112   2.837  -0.606  0.00  0.00    -0.210 N 
ATOM      6  N2  <0> d           3.517   1.965   0.417  0.00  0.00    -0.170 NA
ATOM      7  O1  <0> d           0.972   3.191  -1.742  0.00  0.00    -0.272 OA
ATOM      8  C11 <0> d          -0.215   2.585  -2.014  0.00  0.00     0.184 A 
ATOM      9  C12 <0> d          -0.717   1.589  -1.222  0.00  0.00     0.056 A 
ATOM     10  C13 <0> d          -1.951   1.037  -1.607  0.00  0.00     0.165 A 
ATOM     11  N3  <0> d          -2.704   0.091  -1.096  0.00  0.00    -0.212 NA
ATOM     12  C14 <0> d          -3.793  -0.065  -1.847  0.00  0.00     0.145 A 
ATOM     13  N4  <0> d          -3.762   0.779  -2.857  0.00  0.00    -0.150 NA
ATOM     14  N5  <0> d          -2.588   1.509  -2.739  0.00  0.00    -0.207 N 
ATOM     15  C15 <0> d          -2.038   2.501  -3.483  0.00  0.00     0.239 A 
ATOM     16  N6  <0> d          -0.888   2.999  -3.102  0.00  0.00    -0.217 NA
ATOM     17  C16 <0> d          -4.895  -1.057  -1.580  0.00  0.00     0.095 C 
ATOM     18  C17 <0> d          -0.013   1.086   0.008  0.00  0.00     0.101 C 
ENDROOT
BRANCH  18  19
ATOM     19  C18 <0> d          -0.726   1.576   1.242  0.00  0.00    -0.023 A 
ATOM     20  C23 <0> d          -1.239   0.668   2.151  0.00  0.00     0.041 A 
ATOM     21  C22 <0> d          -1.894   1.119   3.283  0.00  0.00     0.024 A 
ATOM     22 Cl1  <0> d          -1.062  -1.036   1.871  0.00  0.00    -0.084 Cl
ATOM     23  C21 <0> d          -2.035   2.475   3.506  0.00  0.00     0.002 A 
ATOM     24  C20 <0> d          -1.522   3.382   2.597  0.00  0.00     0.001 A 
ATOM     25  C19 <0> d          -0.864   2.933   1.468  0.00  0.00     0.010 A 
ENDBRANCH  18  19
BRANCH   5  26
ATOM     26  C5  <0> d           3.920   3.781  -1.255  0.00  0.00     0.061 A 
ATOM     27  C10 <0> d           4.914   4.447  -0.552  0.00  0.00     0.031 A 
ATOM     28  C9  <0> d           5.708   5.376  -1.195  0.00  0.00     0.002 A 
ATOM     29  C8  <0> d           5.513   5.643  -2.538  0.00  0.00     0.000 A 
ATOM     30  C7  <0> d           4.524   4.981  -3.241  0.00  0.00     0.002 A 
ATOM     31  C6  <0> d           3.730   4.047  -2.605  0.00  0.00     0.031 A 
ENDBRANCH   5  26
TORSDOF 2
ENDMDL
MODEL ZINC91620859
REMARK  3 active torsions:
REMARK  status: ('A' for Active; 'I' for Inactive)
REMARK    1  A    between atoms: C2_2  and  N1_3 
REMARK    2  A    between atoms: C5_7  and  C6_8 
REMARK       I    between atoms: N3_12  and  C11_14 
REMARK       I    between atoms: C11_14  and  N4_16 
REMARK    3  A    between atoms: N4_16  and  C12_17 
ROOT
ATOM      1  C6  <0> d          -1.603   0.659  -2.870  0.00  0.00     0.072 C 
ATOM      2  C7  <0> d          -2.958   0.703  -3.580  0.00  0.00     0.015 C 
ATOM      3  C8  <0> d          -2.752   0.533  -5.087  0.00  0.00     0.021 C 
ATOM      4  C9  <0> d          -2.106  -0.830  -5.359  0.00  0.00     0.127 C 
ATOM      5  N3  <0> d          -0.874  -0.937  -4.566  0.00  0.00    -0.333 N 
ATOM      6  C10 <0> d          -0.944  -0.701  -3.117  0.00  0.00     0.139 C 
ATOM      7  C11 <0> d           0.298  -1.245  -5.156  0.00  0.00     0.323 C 
ATOM      8  O1  <0> d           1.326  -1.237  -4.507  0.00  0.00    -0.247 OA
ATOM      9  N4  <0> d           0.330  -1.562  -6.465  0.00  0.00    -0.307 N 
ATOM     10  H17 <0> d          -0.481  -1.519  -6.995  0.00  0.00     0.170 HD
ENDROOT
BRANCH   1  11
ATOM     11  C5  <0> d          -1.804   0.859  -1.390  0.00  0.00     0.088 A 
ATOM     12  N1  <0> d          -0.962   1.515  -0.562  0.00  0.00    -0.345 N 
ATOM     13  C3  <0> d          -1.511   1.473   0.691  0.00  0.00     0.109 A 
ATOM     14  C4  <0> d          -2.667   0.790   0.587  0.00  0.00     0.106 A 
ATOM     15  N2  <0> d          -2.819   0.424  -0.695  0.00  0.00    -0.354 N 
ATOM     16  H24 <0> d          -3.567  -0.082  -1.049  0.00  0.00     0.166 HD
BRANCH  12  17
ATOM     17  C2  <0> d           0.301   2.156  -0.937  0.00  0.00     0.125 C 
ATOM     18  C1  <0> d           0.022   3.572  -1.447  0.00  0.00     0.027 C 
ENDBRANCH  12  17
ENDBRANCH   1  11
BRANCH   9  19
ATOM     19  C12 <0> d           1.535  -1.954  -7.061  0.00  0.00     0.064 A 
ATOM     20  C17 <0> d           2.371  -2.855  -6.413  0.00  0.00     0.061 A 
ATOM     21  C16 <0> d           3.557  -3.245  -7.007  0.00  0.00     0.026 A 
ATOM     22 Cl1  <0> d           1.924  -3.496  -4.863  0.00  0.00    -0.082 Cl
ATOM     23  C15 <0> d           3.917  -2.730  -8.239  0.00  0.00     0.002 A 
ATOM     24  C14 <0> d           3.089  -1.829  -8.883  0.00  0.00     0.009 A 
ATOM     25  C13 <0> d           1.900  -1.440  -8.298  0.00  0.00    -0.034 A 
ATOM     26  C18 <0> d           0.999  -0.458  -9.002  0.00  0.00     0.050 C 
ENDBRANCH   9  19
TORSDOF 3
ENDMDL
MODEL ZINC91712982
REMARK  5 active torsions:
REMARK  status: ('A' for Active; 'I' for Inactive)
REMARK    1  A    between atoms: C2_2  and  C3_3 
REMARK    2  A    between atoms: C2_2  and  N5_24 
REMARK       I    between atoms: C3_3  and  N1_5 
REMARK    3  A    between atoms: N2_8  and  C8_11 
REMARK    4  A    between atoms: C9_13  and  C13_21 
REMARK    5  A    between atoms: C11_15  and  C12_17 
ROOT
ATOM      1  C3  <0> d           0.836  -0.462   1.171  0.00  0.00     0.250 C 
ATOM      2  O1  <0> d           0.366  -1.223   1.990  0.00  0.00    -0.271 OA
ATOM      3  N1  <0> d           2.100  -0.017   1.312  0.00  0.00    -0.347 N 
ATOM      4  C4  <0> d           2.641   1.000   0.401  0.00  0.00     0.146 C 
ATOM      5  C5  <0> d           3.160   2.179   1.234  0.00  0.00     0.161 C 
ATOM      6  N2  <0> d           4.023   1.654   2.302  0.00  0.00    -0.211 N 
ATOM      7  C6  <0> d           3.482   0.636   3.214  0.00  0.00     0.161 C 
ATOM      8  C7  <0> d           2.961  -0.538   2.384  0.00  0.00     0.146 C 
ENDROOT
BRANCH   6   9
ATOM      9  C8  <0> d           5.322   2.110   2.447  0.00  0.00     0.725 A 
ATOM     10  N4  <0> d           5.782   3.028   1.610  0.00  0.00    -0.058 NA
ATOM     11  C11 <0> d           7.016   3.489   1.723  0.00  0.00     0.161 A 
ATOM     12  C10 <0> d           7.834   2.992   2.726  0.00  0.00     0.065 A 
ATOM     13  C9  <0> d           7.322   2.029   3.582  0.00  0.00     0.059 A 
ATOM     14  N3  <0> d           6.077   1.615   3.416  0.00  0.00    -0.067 NA
BRANCH  11  15
ATOM     15  C12 <0> d           7.530   4.537   0.770  0.00  0.00     0.435 C 
ATOM     16  F1  <0> d           8.112   3.914  -0.339  0.00  0.00    -0.165 F 
ATOM     17  F2  <0> d           6.468   5.344   0.348  0.00  0.00    -0.165 F 
ATOM     18  F3  <0> d           8.487   5.327   1.417  0.00  0.00    -0.165 F 
ENDBRANCH  11  15
BRANCH  13  19
ATOM     19  C13 <0> d           8.175   1.460   4.687  0.00  0.00     0.030 C 
ATOM     20  C14 <0> d           9.019   0.309   4.138  0.00  0.00     0.016 C 
ATOM     21  C15 <0> d           9.095   2.553   5.234  0.00  0.00     0.016 C 
ENDBRANCH  13  19
ENDBRANCH   6   9
BRANCH   1  22
ATOM     22  C2  <0> d           0.005  -0.012  -0.003  0.00  0.00     0.272 C 
ATOM     23  C1  <0> d          -0.615   1.353   0.304  0.00  0.00     0.050 C 
BRANCH  22  24
ATOM     24  N5  <0> d          -1.062  -0.990  -0.252  0.00  0.00    -0.067 N 
ATOM     25  C16 <0> d          -1.797  -0.615  -1.467  0.00  0.00     0.267 C 
ATOM     26  H21 <0> d          -0.657  -1.906  -0.373  0.00  0.00     0.277 HD
ATOM     27  H25 <0> d          -1.696  -1.003   0.534  0.00  0.00     0.277 HD
ENDBRANCH  22  24
ENDBRANCH   1  22
TORSDOF 5
ENDMDL
MODEL ZINC91746272
REMARK  4 active torsions:
REMARK  status: ('A' for Active; 'I' for Inactive)
REMARK    1  A    between atoms: C6_6  and  C7_7 
REMARK    2  A    between atoms: C7_7  and  N1_8 
REMARK    3  A    between atoms: N2_13  and  C14_16 
REMARK    4  A    between atoms: C14_16  and  C15_17 
ROOT
ATOM      1  N1  <0> d          -1.726  -1.017  -1.368  0.00  0.00    -0.347 N 
ATOM      2  C8  <0> d          -2.586  -0.108  -2.139  0.00  0.00     0.136 C 
ATOM      3  C9  <0> d          -2.426  -0.543  -3.605  0.00  0.00    -0.013 C 
ATOM      4  C10 <0> d          -3.749  -0.429  -4.350  0.00  0.00     0.039 C 
ATOM      5  C11 <0> d          -3.542  -0.834  -5.813  0.00  0.00     0.235 C 
ATOM      6  N2  <0> d          -2.528   0.034  -6.423  0.00  0.00    -0.071 N 
ATOM      7  C12 <0> d          -1.234  -0.164  -5.759  0.00  0.00     0.235 C 
ATOM      8  C13 <0> d          -1.339   0.271  -4.294  0.00  0.00     0.039 C 
ATOM      9  C19 <0> d          -2.002  -2.016  -3.473  0.00  0.00     0.114 C 
ATOM     10  C20 <0> d          -1.382  -2.096  -2.093  0.00  0.00     0.220 C 
ATOM     11  O2  <0> d          -0.680  -3.003  -1.698  0.00  0.00    -0.273 OA
ATOM     12  H27 <0> d          -2.810   0.998  -6.328  0.00  0.00     0.279 HD
ENDROOT
BRANCH   1  13
ATOM     13  C7  <0> d          -1.293  -0.774   0.010  0.00  0.00     0.164 C 
BRANCH  13  14
ATOM     14  C6  <0> d           0.002  -0.004   0.002  0.00  0.00    -0.037 A 
ATOM     15  C1  <0> d          -0.017   1.378   0.010  0.00  0.00     0.012 A 
ATOM     16  C2  <0> d           1.170   2.087   0.002  0.00  0.00     0.046 A 
ATOM     17  C3  <0> d           2.379   1.413  -0.013  0.00  0.00     0.154 A 
ATOM     18  C4  <0> d           2.397   0.026  -0.021  0.00  0.00     0.155 A 
ATOM     19  F2  <0> d           3.539   2.105  -0.021  0.00  0.00    -0.203 F 
ATOM     20  C5  <0> d           1.208  -0.680  -0.013  0.00  0.00     0.054 A 
ATOM     21  F1  <0> d           3.576  -0.634  -0.036  0.00  0.00    -0.203 F 
ENDBRANCH  13  14
ENDBRANCH   1  13
BRANCH   6  22
ATOM     22  C14 <0> d          -2.399  -0.295  -7.849  0.00  0.00     0.241 C 
BRANCH  22  23
ATOM     23  C15 <0> d          -1.435   0.689  -8.515  0.00  0.00     0.037 C 
ATOM     24  C18 <0> d          -2.054   2.101  -8.587  0.00  0.00     0.173 C 
ATOM     25  O1  <0> d          -1.717   2.653  -9.868  0.00  0.00    -0.391 OA
ATOM     26  C17 <0> d          -0.896   1.730 -10.601  0.00  0.00     0.168 C 
ATOM     27  C16 <0> d          -1.232   0.336 -10.013  0.00  0.00     0.034 C 
ENDBRANCH  22  23
ENDBRANCH   6  22
TORSDOF 4
ENDMDL
MODEL ZINC91755514
REMARK  4 active torsions:
REMARK  status: ('A' for Active; 'I' for Inactive)
REMARK    1  A    between atoms: C4_5  and  C6_7 
REMARK    2  A    between atoms: C6_7  and  N2_8 
REMARK       I    between atoms: N3_15  and  C14_17 
REMARK       I    between atoms: C14_17  and  N4_19 
REMARK    3  A    between atoms: N4_19  and  C15_20 
REMARK    4  A    between atoms: C15_20  and  C16_21 
ROOT
ATOM      1  N2  <0> d           1.365  -2.645  -1.409  0.00  0.00    -0.060 N 
ATOM      2  C7  <0> d           2.605  -2.127  -1.976  0.00  0.00     0.242 C 
ATOM      3  C8  <0> d           3.316  -3.139  -2.854  0.00  0.00     0.030 C 
ATOM      4  C9  <0> d           3.676  -4.395  -2.062  0.00  0.00     0.010 C 
ATOM      5  C10 <0> d           2.619  -4.691  -1.002  0.00  0.00     0.035 C 
ATOM      6  C11 <0> d           1.278  -4.074  -1.405  0.00  0.00     0.206 C 
ATOM      7  C12 <0> d           0.750  -4.705  -2.669  0.00  0.00     0.160 C 
ATOM      8  N3  <0> d           1.788  -4.812  -3.685  0.00  0.00    -0.332 N 
ATOM      9  C13 <0> d           2.450  -3.557  -4.043  0.00  0.00     0.134 C 
ATOM     10  C14 <0> d           2.119  -5.989  -4.252  0.00  0.00     0.318 C 
ATOM     11  O1  <0> d           1.610  -7.019  -3.856  0.00  0.00    -0.247 OA
ATOM     12  N4  <0> d           3.015  -6.024  -5.259  0.00  0.00    -0.337 N 
ATOM     13  H19 <0> d           3.476  -5.213  -5.526  0.00  0.00     0.164 HD
ATOM     14  H25 <0> d           0.592  -2.277  -1.943  0.00  0.00     0.280 HD
ENDROOT
BRANCH  12  15
ATOM     15  C15 <0> d           3.292  -7.286  -5.949  0.00  0.00     0.189 C 
BRANCH  15  16
ATOM     16  C16 <0> d           4.322  -7.054  -7.025  0.00  0.00     0.070 A 
ATOM     17  O2  <0> d           4.065  -6.718  -8.299  0.00  0.00    -0.325 OA
ATOM     18  C19 <0> d           5.221  -6.591  -8.971  0.00  0.00     0.142 A 
ATOM     19  C18 <0> d           6.234  -6.856  -8.127  0.00  0.00     0.027 A 
ATOM     20  C17 <0> d           5.655  -7.155  -6.872  0.00  0.00     0.036 A 
ENDBRANCH  15  16
ENDBRANCH  12  15
BRANCH   1  21
ATOM     21  C6  <0> d           1.248  -2.166  -0.026  0.00  0.00     0.294 C 
BRANCH  21  22
ATOM     22  C4  <0> d           1.214  -0.659  -0.017  0.00  0.00     0.060 A 
ATOM     23  N1  <0> d           2.345   0.018  -0.025  0.00  0.00    -0.264 NA
ATOM     24  C3  <0> d           2.364   1.337  -0.018  0.00  0.00     0.117 A 
ATOM     25  C2  <0> d           1.188   2.061  -0.004  0.00  0.00     0.019 A 
ATOM     26  C1  <0> d          -0.022   1.383   0.004  0.00  0.00     0.003 A 
ATOM     27  C5  <0> d          -0.003  -0.003  -0.002  0.00  0.00     0.029 A 
ENDBRANCH  21  22
ENDBRANCH   1  21
TORSDOF 4
ENDMDL
MODEL ZINC62176542
REMARK  5 active torsions:
REMARK  status: ('A' for Active; 'I' for Inactive)
REMARK    1  A    between atoms: C2_2  and  N1_3 
REMARK    2  A    between atoms: N2_6  and  C7_9 
REMARK    3  A    between atoms: C14_17  and  O2_18 
REMARK    4  A    between atoms: O2_18  and  C15_19 
REMARK    5  A    between atoms: C17_21  and  O3_22 
ROOT
ATOM      1  C7  <0> d           1.530  -2.584   4.772  0.00  0.00     0.280 C 
ATOM      2  C8  <0> d           0.690  -2.251   6.012  0.00  0.00     0.214 C 
ATOM      3  O1  <0> d           1.411  -2.674   7.170  0.00  0.00    -0.345 OA
ATOM      4  C9  <0> d           1.918  -3.935   7.178  0.00  0.00     0.111 A 
ATOM      5  C10 <0> d           2.068  -4.667   6.015  0.00  0.00     0.009 A 
ATOM      6  C11 <0> d           2.596  -5.947   6.069  0.00  0.00     0.013 A 
ATOM      7  C12 <0> d           2.970  -6.499   7.278  0.00  0.00     0.003 A 
ATOM      8  C13 <0> d           2.819  -5.774   8.445  0.00  0.00     0.040 A 
ATOM      9  C14 <0> d           2.295  -4.494   8.399  0.00  0.00     0.102 A 
ATOM     10  C17 <0> d           1.663  -4.106   4.675  0.00  0.00     0.189 C 
ENDROOT
BRANCH   1  11
ATOM     11  N2  <0> d           0.864  -2.067   3.569  0.00  0.00     0.101 N 
ATOM     12  C4  <0> d           0.710  -0.608   3.639  0.00  0.00     0.300 C 
ATOM     13  C3  <0> d          -0.039  -0.117   2.398  0.00  0.00     0.265 C 
ATOM     14  N1  <0> d           0.713  -0.491   1.192  0.00  0.00    -0.068 N 
ATOM     15  C6  <0> d           0.837  -1.953   1.124  0.00  0.00     0.265 C 
ATOM     16  H27 <0> d           1.632  -0.076   1.228  0.00  0.00     0.280 HD
ATOM     17  C5  <0> d           1.594  -2.458   2.354  0.00  0.00     0.300 C 
BRANCH  14  18
ATOM     18  C2  <0> d           0.002  -0.004   0.002  0.00  0.00     0.230 C 
ATOM     19  C1  <0> d          -0.019   1.526   0.010  0.00  0.00     0.034 C 
ENDBRANCH  14  18
ENDBRANCH   1  11
BRANCH  10  20
ATOM     20  O3  <0> d           2.656  -4.436   3.701  0.00  0.00    -0.389 OA
ATOM     21  H26 <0> d           2.794  -5.386   3.586  0.00  0.00     0.210 HD
ENDBRANCH  10  20
BRANCH   9  22
ATOM     22  O2  <0> d           2.147  -3.780   9.547  0.00  0.00    -0.349 OA
BRANCH  22  23
ATOM     23  C15 <0> d           2.553  -4.413  10.762  0.00  0.00     0.171 C 
ATOM     24  C16 <0> d           2.312  -3.462  11.937  0.00  0.00     0.034 C 
ENDBRANCH  22  23
ENDBRANCH   9  22
TORSDOF 5
ENDMDL
MODEL ZINC91931596
REMARK  5 active torsions:
REMARK  status: ('A' for Active; 'I' for Inactive)
REMARK    1  A    between atoms: C4_4  and  C17_21 
REMARK    2  A    between atoms: C5_6  and  C6_8 
REMARK    3  A    between atoms: C6_8  and  N3_9 
REMARK    4  A    between atoms: C9_12  and  C13_16 
REMARK    5  A    between atoms: C9_12  and  O1_20 
ROOT
ATOM      1  N3  <0> d           1.483  -2.966   2.745  0.00  0.00    -0.064 N 
ATOM      2  C7  <0> d           2.115  -3.971   1.883  0.00  0.00     0.238 C 
ATOM      3  C8  <0> d           3.583  -4.139   2.280  0.00  0.00     0.066 C 
ATOM      4  C9  <0> d           3.662  -4.595   3.740  0.00  0.00     0.068 C 
ATOM      5  C10 <0> d           2.934  -3.577   4.623  0.00  0.00     0.042 C 
ATOM      6  C11 <0> d           1.490  -3.430   4.138  0.00  0.00     0.242 C 
ATOM      7  C12 <0> d           2.941  -4.062   6.074  0.00  0.00     0.015 C 
ATOM      8  H30 <0> d           1.993  -2.099   2.678  0.00  0.00     0.280 HD
ENDROOT
BRANCH   1   9
ATOM      9  C6  <0> d           0.096  -2.752   2.310  0.00  0.00     0.314 C 
BRANCH   9  10
ATOM     10  C5  <0> d           0.090  -2.160   0.924  0.00  0.00     0.152 A 
ATOM     11  N1  <0> d           0.067  -2.968  -0.116  0.00  0.00    -0.231 NA
ATOM     12  C4  <0> d           0.061  -2.480  -1.355  0.00  0.00     0.071 A 
ATOM     13  C3  <0> d           0.080  -1.094  -1.535  0.00  0.00     0.059 A 
ATOM     14  C2  <0> d           0.105  -0.287  -0.411  0.00  0.00     0.035 A 
ATOM     15  C1  <0> d           0.127   1.213  -0.550  0.00  0.00     0.070 C 
ATOM     16  N2  <0> d           0.114  -0.849   0.787  0.00  0.00    -0.237 NA
BRANCH  12  17
ATOM     17  C17 <0> d           0.033  -3.392  -2.524  0.00  0.00    -0.007 A 
ATOM     18  C22 <0> d           0.014  -4.772  -2.334  0.00  0.00     0.014 A 
ATOM     19  C21 <0> d          -0.017  -5.616  -3.426  0.00  0.00     0.001 A 
ATOM     20  C20 <0> d          -0.017  -5.094  -4.707  0.00  0.00     0.000 A 
ATOM     21  C19 <0> d           0.007  -3.725  -4.901  0.00  0.00     0.001 A 
ATOM     22  C18 <0> d           0.032  -2.871  -3.817  0.00  0.00     0.014 A 
ENDBRANCH  12  17
ENDBRANCH   9  10
ENDBRANCH   1   9
BRANCH   4  23
ATOM     23  C13 <0> d           5.128  -4.689   4.168  0.00  0.00     0.020 C 
ATOM     24  C16 <0> d           5.984  -5.572   3.246  0.00  0.00     0.007 C 
ATOM     25  C15 <0> d           7.097  -4.523   3.404  0.00  0.00     0.001 C 
ATOM     26  C14 <0> d           5.985  -3.502   3.696  0.00  0.00     0.007 C 
ENDBRANCH   4  23
BRANCH   4  27
ATOM     27  O1  <0> d           3.041  -5.875   3.875  0.00  0.00    -0.389 OA
ATOM     28  H24 <0> d           2.107  -5.887   3.623  0.00  0.00     0.210 HD
ENDBRANCH   4  27
TORSDOF 5
ENDMDL
MODEL ZINC91973912
REMARK  6 active torsions:
REMARK  status: ('A' for Active; 'I' for Inactive)
REMARK    1  A    between atoms: C2_2  and  C3_3 
REMARK    2  A    between atoms: C3_3  and  N1_4 
REMARK    3  A    between atoms: C5_6  and  C7_9 
REMARK       I    between atoms: C7_9  and  N3_11 
REMARK    4  A    between atoms: N3_11  and  C8_12 
REMARK    5  A    between atoms: C8_12  and  C9_13 
REMARK    6  A    between atoms: C9_13  and  N4_14 
ROOT
ATOM      1  C7  <0> d          -1.376  -5.289  -1.519  0.00  0.00     0.255 C 
ATOM      2  O1  <0> d          -1.383  -5.171  -2.730  0.00  0.00    -0.268 OA
ATOM      3  N3  <0> d          -1.357  -6.516  -0.962  0.00  0.00    -0.355 N 
ATOM      4  H9  <0> d          -1.351  -6.610   0.004  0.00  0.00     0.162 HD
ENDROOT
BRANCH   1   5
ATOM      5  C5  <0> d          -1.388  -4.090  -0.662  0.00  0.00     0.074 A 
ATOM      6  C4  <0> d          -1.408  -2.777  -1.089  0.00  0.00     0.044 A 
ATOM      7  N1  <0> d          -1.413  -1.998   0.005  0.00  0.00    -0.274 N 
ATOM      8  C13 <0> d          -1.421  -2.305  -2.520  0.00  0.00     0.071 C 
ATOM      9  N2  <0> d          -1.391  -2.822   1.136  0.00  0.00    -0.184 NA
ATOM     10  C6  <0> d          -1.382  -4.069   0.751  0.00  0.00     0.158 A 
BRANCH   7  11
ATOM     11  C3  <0> d          -1.433  -0.534   0.013  0.00  0.00     0.150 C 
BRANCH  11  12
ATOM     12  C2  <0> d           0.002  -0.004   0.002  0.00  0.00     0.017 C 
ATOM     13  C1  <0> d          -0.019   1.526   0.010  0.00  0.00     0.007 C 
ENDBRANCH  11  12
ENDBRANCH   7  11
ENDBRANCH   1   5
BRANCH   3  14
ATOM     14  C8  <0> d          -1.344  -7.707  -1.814  0.00  0.00     0.144 C 
BRANCH  14  15
ATOM     15  C9  <0> d          -1.323  -8.961  -0.937  0.00  0.00     0.170 C 
BRANCH  15  16
ATOM     16  N4  <0> d          -1.311 -10.153  -1.789  0.00  0.00    -0.278 N 
ATOM     17  N5  <0> d          -2.240 -10.458  -2.792  0.00  0.00    -0.183 NA
ATOM     18  C12 <0> d          -1.897 -11.599  -3.334  0.00  0.00     0.164 A 
ATOM     19  C11 <0> d          -0.745 -12.061  -2.688  0.00  0.00     0.070 A 
ATOM     20  C10 <0> d          -0.406 -11.154  -1.742  0.00  0.00     0.137 A 
ATOM     21 Cl1  <0> d           0.100 -13.537  -3.037  0.00  0.00    -0.081 Cl
ENDBRANCH  15  16
ENDBRANCH  14  15
ENDBRANCH   3  14
TORSDOF 6
ENDMDL
MODEL ZINC92046276
REMARK  4 active torsions:
REMARK  status: ('A' for Active; 'I' for Inactive)
REMARK    1  A    between atoms: N2_7  and  C10_14 
REMARK    2  A    between atoms: C7_9  and  C9_11 
REMARK    3  A    between atoms: C10_14  and  C11_15 
REMARK    4  A    between atoms: C15_19  and  O4_27 
ROOT
ATOM      1  C1  <0> d          -0.018   1.465   0.010  0.00  0.00     0.269 C 
ATOM      2  N1  <0> d           0.002  -0.004   0.002  0.00  0.00    -0.074 N 
ATOM      3  C2  <0> d          -1.376  -0.517   0.035  0.00  0.00     0.234 C 
ATOM      4  C3  <0> d          -1.337  -2.034  -0.137  0.00  0.00     0.035 C 
ATOM      5  C4  <0> d          -0.569  -2.684   1.017  0.00  0.00     0.035 C 
ATOM      6  C5  <0> d          -0.129  -4.093   0.522  0.00  0.00     0.241 C 
ATOM      7  N2  <0> d           1.027  -3.831  -0.364  0.00  0.00    -0.065 N 
ATOM      8  C6  <0> d           1.640  -2.547   0.034  0.00  0.00     0.258 C 
ATOM      9  C7  <0> d           0.794  -1.990   1.212  0.00  0.00     0.101 C 
ATOM     10  C8  <0> d           0.711  -0.493   1.189  0.00  0.00     0.257 C 
ATOM     11  H25 <0> d           0.716  -3.777  -1.323  0.00  0.00     0.280 HD
ATOM     12  H26 <0> d           0.469  -0.332  -0.830  0.00  0.00     0.279 HD
ENDROOT
BRANCH   7  13
ATOM     13  C10 <0> d           2.011  -4.913  -0.226  0.00  0.00     0.279 C 
BRANCH  13  14
ATOM     14  C11 <0> d           1.426  -6.196  -0.757  0.00  0.00     0.036 A 
ATOM     15  C19 <0> d           0.623  -7.002   0.078  0.00  0.00     0.253 A 
ATOM     16  N3  <0> d           0.078  -8.149  -0.361  0.00  0.00    -0.322 N 
ATOM     17  O3  <0> d           0.414  -6.645   1.225  0.00  0.00    -0.268 OA
ATOM     18  C18 <0> d           0.296  -8.591  -1.650  0.00  0.00     0.045 A 
ATOM     19  H2  <0> d          -0.472  -8.677   0.239  0.00  0.00     0.169 HD
ATOM     20  C13 <0> d           1.094  -7.827  -2.521  0.00  0.00    -0.006 A 
ATOM     21  C17 <0> d          -0.264  -9.783  -2.100  0.00  0.00     0.033 A 
ATOM     22  C12 <0> d           1.677  -6.575  -2.035  0.00  0.00     0.028 A 
ATOM     23  C14 <0> d           1.319  -8.268  -3.830  0.00  0.00     0.050 A 
ATOM     24  C15 <0> d           0.754  -9.453  -4.255  0.00  0.00     0.069 A 
ATOM     25  C16 <0> d          -0.035 -10.207  -3.390  0.00  0.00     0.039 A 
BRANCH  24  26
ATOM     26  O4  <0> d           0.969  -9.887  -5.526  0.00  0.00    -0.356 OA
ATOM     27  C20 <0> d           0.356 -11.121  -5.903  0.00  0.00     0.210 C 
ENDBRANCH  24  26
ENDBRANCH  13  14
ENDBRANCH   7  13
BRANCH   9  28
ATOM     28  C9  <0> d           1.401  -2.432   2.518  0.00  0.00     0.185 C 
ATOM     29  O1  <0> d           2.613  -2.479   2.642  0.00  0.00    -0.647 OA
ATOM     30  O2  <0> d           0.681  -2.742   3.451  0.00  0.00    -0.647 OA
ENDBRANCH   9  28
TORSDOF 4
ENDMDL
MODEL ZINC02716423
REMARK  6 active torsions:
REMARK  status: ('A' for Active; 'I' for Inactive)
REMARK    1  A    between atoms: C5_5  and  C8_8 
REMARK    2  A    between atoms: C8_8  and  N1_9 
REMARK    3  A    between atoms: C16_17  and  O1_18 
REMARK    4  A    between atoms: O1_18  and  C17_19 
REMARK    5  A    between atoms: C17_19  and  C18_20 
REMARK       I    between atoms: C18_20  and  N2_22 
REMARK    6  A    between atoms: N2_22  and  C19_23 
ROOT
ATOM      1  N1  <0> d          -2.500   5.209  -0.266  0.00  0.00    -0.343 N 
ATOM      2  C9  <0> d          -1.278   5.886  -0.694  0.00  0.00     0.131 C 
ATOM      3  C10 <0> d          -0.065   5.355   0.064  0.00  0.00     0.062 C 
ATOM      4  C11 <0> d          -0.034   3.851   0.006  0.00  0.00    -0.007 A 
ATOM      5  C12 <0> d          -1.235   3.139  -0.010  0.00  0.00     0.041 A 
ATOM      6  C13 <0> d          -1.219   1.747  -0.030  0.00  0.00     0.018 A 
ATOM      7  C14 <0> d          -0.012   1.075  -0.038  0.00  0.00     0.004 A 
ATOM      8  C15 <0> d           1.177   1.780  -0.035  0.00  0.00     0.037 A 
ATOM      9  C16 <0> d           1.169   3.169  -0.013  0.00  0.00     0.076 A 
ATOM     10  C27 <0> d          -2.511   3.885  -0.017  0.00  0.00     0.254 C 
ATOM     11  O3  <0> d          -3.560   3.310   0.200  0.00  0.00    -0.267 OA
ENDROOT
BRANCH   9  12
ATOM     12  O1  <0> d           2.342   3.857  -0.009  0.00  0.00    -0.342 OA
BRANCH  12  13
ATOM     13  C17 <0> d           3.545   3.087  -0.028  0.00  0.00     0.278 C 
BRANCH  13  14
ATOM     14  C18 <0> d           4.734   4.013  -0.021  0.00  0.00     0.246 C 
ATOM     15  O2  <0> d           4.567   5.214  -0.001  0.00  0.00    -0.271 OA
ATOM     16  N2  <0> d           5.983   3.506  -0.036  0.00  0.00    -0.325 N 
ATOM     17  H19 <0> d           6.119   2.548   0.028  0.00  0.00     0.169 HD
BRANCH  16  18
ATOM     18  C19 <0> d           7.084   4.363  -0.146  0.00  0.00     0.040 A 
ATOM     19  C24 <0> d           8.323   3.970   0.342  0.00  0.00    -0.035 A 
ATOM     20  C23 <0> d           9.409   4.815   0.228  0.00  0.00     0.015 A 
ATOM     21  C25 <0> d           8.483   2.619   0.992  0.00  0.00     0.050 C 
ATOM     22  C22 <0> d           9.261   6.056  -0.363  0.00  0.00    -0.061 A 
ATOM     23  C21 <0> d           8.027   6.454  -0.845  0.00  0.00     0.009 A 
ATOM     24  C26 <0> d          10.447   6.979  -0.481  0.00  0.00     0.048 C 
ATOM     25  C20 <0> d           6.939   5.611  -0.739  0.00  0.00     0.030 A 
ENDBRANCH  16  18
ENDBRANCH  13  14
ENDBRANCH  12  13
ENDBRANCH   9  12
BRANCH   1  26
ATOM     26  C8  <0> d          -3.734   5.983  -0.104  0.00  0.00     0.164 C 
BRANCH  26  27
ATOM     27  C5  <0> d          -3.820   6.500   1.309  0.00  0.00    -0.040 A 
ATOM     28  C4  <0> d          -3.279   7.732   1.628  0.00  0.00     0.009 A 
ATOM     29  C3  <0> d          -3.359   8.207   2.923  0.00  0.00     0.007 A 
ATOM     30  C2  <0> d          -3.979   7.451   3.900  0.00  0.00    -0.062 A 
ATOM     31  C1  <0> d          -4.066   7.968   5.313  0.00  0.00     0.048 C 
ATOM     32  C7  <0> d          -4.521   6.219   3.581  0.00  0.00     0.007 A 
ATOM     33  C6  <0> d          -4.445   5.746   2.284  0.00  0.00     0.009 A 
ENDBRANCH  26  27
ENDBRANCH   1  26
TORSDOF 6
ENDMDL
MODEL ZINC09516028
REMARK  7 active torsions:
REMARK  status: ('A' for Active; 'I' for Inactive)
REMARK    1  A    between atoms: C3_4  and  C5_7 
REMARK    2  A    between atoms: C9_11  and  N2_13 
REMARK       I    between atoms: N2_13  and  C11_14 
REMARK    3  A    between atoms: C11_14  and  C12_16 
REMARK    4  A    between atoms: C12_16  and  C13_17 
REMARK    5  A    between atoms: C13_17  and  N3_18 
REMARK    6  A    between atoms: N3_18  and  S2_19 
REMARK    7  A    between atoms: S2_19  and  C14_22 
ROOT
ATOM      1  N2  <0> d           3.621  -0.671  -0.036  0.00  0.00    -0.327 N 
ATOM      2  C11 <0> d           3.634  -2.015   0.058  0.00  0.00     0.223 C 
ATOM      3  O1  <0> d           2.590  -2.633   0.065  0.00  0.00    -0.273 OA
ATOM      4  H9  <0> d           4.456  -0.182  -0.110  0.00  0.00     0.169 HD
ENDROOT
BRANCH   1   5
ATOM      5  C9  <0> d           2.404   0.020  -0.029  0.00  0.00     0.035 A 
ATOM      6  C8  <0> d           2.315   1.264   0.581  0.00  0.00     0.029 A 
ATOM      7  C7  <0> d           1.114   1.950   0.590  0.00  0.00     0.003 A 
ATOM      8  C6  <0> d          -0.003   1.401  -0.007  0.00  0.00     0.014 A 
ATOM      9  C5  <0> d           0.077   0.152  -0.622  0.00  0.00    -0.005 A 
ATOM     10  C10 <0> d           1.286  -0.538  -0.632  0.00  0.00     0.043 A 
BRANCH   9  11
ATOM     11  C3  <0> d          -1.122  -0.439  -1.264  0.00  0.00     0.074 A 
ATOM     12  N1  <0> d          -1.094  -1.664  -1.766  0.00  0.00    -0.245 NA
ATOM     13  C2  <0> d          -2.149  -2.195  -2.335  0.00  0.00     0.071 A 
ATOM     14  C1  <0> d          -2.301  -3.560  -2.955  0.00  0.00     0.078 C 
ATOM     15  S1  <0> d          -3.328  -0.928  -2.193  0.00  0.00    -0.085 SA
ATOM     16  C4  <0> d          -2.295   0.262  -1.350  0.00  0.00     0.084 A 
ENDBRANCH   9  11
ENDBRANCH   1   5
BRANCH   2  17
ATOM     17  C12 <0> d           4.945  -2.751   0.155  0.00  0.00     0.123 C 
BRANCH  17  18
ATOM     18  C13 <0> d           4.680  -4.255   0.251  0.00  0.00     0.141 C 
BRANCH  18  19
ATOM     19  N3  <0> d           5.955  -4.971   0.345  0.00  0.00    -0.315 N 
ATOM     20  H14 <0> d           6.783  -4.517   0.124  0.00  0.00     0.172 HD
BRANCH  19  21
ATOM     21  S2  <0> d           5.982  -6.554   0.829  0.00  0.00     0.265 S 
ATOM     22  O2  <0> d           7.341  -6.967   0.794  0.00  0.00    -0.200 OA
ATOM     23  O3  <0> d           5.193  -6.632   2.008  0.00  0.00    -0.200 OA
BRANCH  21  24
ATOM     24  C14 <0> d           5.139  -7.490  -0.403  0.00  0.00     0.119 A 
ATOM     25  S3  <0> d           3.405  -7.900  -0.514  0.00  0.00    -0.088 SA
ATOM     26  C17 <0> d           3.464  -8.836  -2.033  0.00  0.00     0.051 A 
ATOM     27  C16 <0> d           4.781  -8.775  -2.349  0.00  0.00     0.009 A 
ATOM     28  C15 <0> d           5.638  -8.080  -1.517  0.00  0.00     0.033 A 
ENDBRANCH  21  24
ENDBRANCH  19  21
ENDBRANCH  18  19
ENDBRANCH  17  18
ENDBRANCH   2  17
TORSDOF 7
ENDMDL
MODEL ZINC09575519
REMARK  4 active torsions:
REMARK  status: ('A' for Active; 'I' for Inactive)
REMARK    1  A    between atoms: C3_3  and  C6_9 
REMARK    2  A    between atoms: C6_9  and  C7_10 
REMARK    3  A    between atoms: C7_10  and  C8_11 
REMARK    4  A    between atoms: C9_13  and  C10_16 
ROOT
ATOM      1  C8  <0> d          -0.742   1.585  -1.213  0.00  0.00     0.173 A 
ATOM      2  N3  <0> d          -0.521   2.711  -1.844  0.00  0.00    -0.204 NA
ATOM      3  C9  <0> d          -1.405   2.733  -2.868  0.00  0.00     0.189 A 
ATOM      4  N4  <0> d          -2.103   1.629  -2.798  0.00  0.00    -0.106 NA
ATOM      5  O1  <0> d          -1.730   0.959  -1.858  0.00  0.00    -0.196 OA
ENDROOT
BRANCH   1   6
ATOM      6  C7  <0> d          -0.013   1.086   0.008  0.00  0.00     0.093 C 
BRANCH   6   7
ATOM      7  C6  <0> d          -0.729   1.579   1.267  0.00  0.00     0.051 C 
BRANCH   7   8
ATOM      8  C3  <0> d           0.000   1.080   2.488  0.00  0.00    -0.008 A 
ATOM      9  C2  <0> d           1.005   1.718   3.132  0.00  0.00     0.032 A 
ATOM     10  C1  <0> d           1.594   3.053   2.756  0.00  0.00     0.070 C 
ATOM     11  N2  <0> d           1.385   0.945   4.170  0.00  0.00    -0.282 N 
ATOM     12  N1  <0> d           0.587  -0.207   4.164  0.00  0.00    -0.179 NA
ATOM     13  H1  <0> d           2.108   1.156   4.828  0.00  0.00     0.189 HD
ATOM     14  C4  <0> d          -0.246  -0.122   3.159  0.00  0.00     0.059 A 
ATOM     15  C5  <0> d          -1.289  -1.145   2.787  0.00  0.00     0.073 C 
ENDBRANCH   7   8
ENDBRANCH   6   7
ENDBRANCH   1   6
BRANCH   3  16
ATOM     16  C10 <0> d          -1.554   3.807  -3.880  0.00  0.00     0.017 A 
ATOM     17  C15 <0> d          -2.515   3.693  -4.883  0.00  0.00     0.055 A 
ATOM     18  C14 <0> d          -2.651   4.696  -5.825  0.00  0.00     0.105 A 
ATOM     19  C13 <0> d          -1.829   5.820  -5.769  0.00  0.00     0.105 A 
ATOM     20  O2  <0> d          -3.496   4.826  -6.889  0.00  0.00    -0.323 OA
ATOM     21  C12 <0> d          -0.873   5.932  -4.770  0.00  0.00     0.040 A 
ATOM     22  O3  <0> d          -2.159   6.652  -6.799  0.00  0.00    -0.323 OA
ATOM     23  C11 <0> d          -0.738   4.936  -3.825  0.00  0.00     0.018 A 
ATOM     24  C16 <0> d          -2.910   5.843  -7.723  0.00  0.00     0.352 C 
ENDBRANCH   3  16
TORSDOF 4
ENDMDL
MODEL ZINC09596520
REMARK  2 active torsions:
REMARK  status: ('A' for Active; 'I' for Inactive)
REMARK    1  A    between atoms: C2_2  and  N1_3 
REMARK    2  A    between atoms: C10_12  and  C11_14 
REMARK       I    between atoms: C11_14  and  N3_16 
ROOT
ATOM      1  N1  <0> d           2.415   0.228  -0.858  0.00  0.00    -0.234 N 
ATOM      2  C3  <0> d           1.338  -0.581  -0.793  0.00  0.00     0.274 A 
ATOM      3  O1  <0> d           1.434  -1.769  -1.042  0.00  0.00    -0.266 OA
ATOM      4  C4  <0> d           0.044   0.005  -0.415  0.00  0.00     0.046 A 
ATOM      5  C5  <0> d          -1.125  -0.742  -0.319  0.00  0.00     0.018 A 
ATOM      6  C6  <0> d          -2.299  -0.116   0.043  0.00  0.00     0.001 A 
ATOM      7  C7  <0> d          -2.324   1.246   0.310  0.00  0.00     0.001 A 
ATOM      8  C8  <0> d          -1.175   2.003   0.226  0.00  0.00     0.015 A 
ATOM      9  C9  <0> d           0.019   1.393  -0.142  0.00  0.00     0.016 A 
ATOM     10  C10 <0> d           1.288   2.129  -0.261  0.00  0.00     0.156 A 
ATOM     11  N2  <0> d           2.374   1.482  -0.608  0.00  0.00    -0.163 NA
ENDROOT
BRANCH  10  12
ATOM     12  C11 <0> d           1.337   3.580   0.008  0.00  0.00     0.275 C 
ATOM     13  O2  <0> d           0.305   4.209   0.145  0.00  0.00    -0.266 OA
ATOM     14  N3  <0> d           2.526   4.208   0.102  0.00  0.00    -0.342 N 
ATOM     15  C16 <0> d           2.596   5.670   0.214  0.00  0.00     0.091 C 
ATOM     16  C12 <0> d           3.783   3.445   0.088  0.00  0.00     0.127 C 
ATOM     17  C15 <0> d           3.508   6.212  -0.883  0.00  0.00     0.009 C 
ATOM     18  C17 <0> d           1.201   6.274   0.088  0.00  0.00     0.026 C 
ATOM     19  C14 <0> d           4.874   5.523  -0.776  0.00  0.00     0.008 C 
ATOM     20  C20 <0> d           2.903   5.897  -2.253  0.00  0.00     0.007 C 
ATOM     21  C13 <0> d           4.699   4.019  -0.997  0.00  0.00     0.020 C 
ATOM     22  C19 <0> d           1.520   6.519  -2.374  0.00  0.00     0.001 C 
ATOM     23  C18 <0> d           0.612   5.944  -1.285  0.00  0.00     0.002 C 
ENDBRANCH  10  12
BRANCH   1  24
ATOM     24  C2  <0> d           3.703  -0.361  -1.235  0.00  0.00     0.150 C 
ATOM     25  C1  <0> d           3.866  -0.300  -2.755  0.00  0.00     0.029 C 
ENDBRANCH   1  24
TORSDOF 2
ENDMDL
MODEL ZINC09670508
REMARK  4 active torsions:
REMARK  status: ('A' for Active; 'I' for Inactive)
REMARK       I    between atoms: C2_2  and  N1_4 
REMARK       I    between atoms: N2_7  and  C7_10 
REMARK    1  A    between atoms: C7_10  and  C8_12 
REMARK    2  A    between atoms: C11_15  and  N3_18 
REMARK    3  A    between atoms: N3_18  and  S1_19 
REMARK    4  A    between atoms: S1_19  and  C14_22 
ROOT
ATOM      1  C8  <0> d          -1.396   1.869   0.906  0.00  0.00     0.032 A 
ATOM      2  C9  <0> d          -1.899   3.096   0.465  0.00  0.00     0.019 A 
ATOM      3  C10 <0> d          -3.223   3.408   0.668  0.00  0.00     0.031 A 
ATOM      4  C11 <0> d          -4.059   2.509   1.325  0.00  0.00     0.042 A 
ATOM      5  C12 <0> d          -3.560   1.288   1.770  0.00  0.00     0.031 A 
ATOM      6  C13 <0> d          -2.238   0.967   1.564  0.00  0.00     0.019 A 
ENDROOT
BRANCH   1   7
ATOM      7  C7  <0> d           0.022   1.528   0.683  0.00  0.00     0.253 C 
ATOM      8  N2  <0> d           0.629   1.885  -0.466  0.00  0.00    -0.345 N 
ATOM      9  C4  <0> d          -0.139   2.505  -1.555  0.00  0.00     0.146 C 
ATOM     10  C5  <0> d           2.070   1.667  -0.650  0.00  0.00     0.146 C 
ATOM     11  C3  <0> d           0.068   1.681  -2.832  0.00  0.00     0.145 C 
ATOM     12  N1  <0> d           1.508   1.458  -3.018  0.00  0.00    -0.349 N 
ATOM     13  C2  <0> d           2.115   1.815  -4.168  0.00  0.00     0.215 C 
ATOM     14  C6  <0> d           2.276   0.837  -1.929  0.00  0.00     0.145 C 
ATOM     15  C1  <0> d           1.339   2.545  -5.234  0.00  0.00     0.117 C 
ATOM     16  O1  <0> d           3.285   1.549  -4.344  0.00  0.00    -0.274 OA
ATOM     17  O2  <0> d           0.642   0.920   1.535  0.00  0.00    -0.267 OA
ENDBRANCH   1   7
BRANCH   4  18
ATOM     18  N3  <0> d          -5.396   2.830   1.534  0.00  0.00    -0.280 N 
ATOM     19  H16 <0> d          -5.966   3.048   0.781  0.00  0.00     0.179 HD
BRANCH  18  20
ATOM     20  S1  <0> d          -6.013   2.841   3.071  0.00  0.00     0.269 S 
ATOM     21  O3  <0> d          -7.371   3.245   2.960  0.00  0.00    -0.200 OA
ATOM     22  O4  <0> d          -5.631   1.611   3.671  0.00  0.00    -0.200 OA
BRANCH  20  23
ATOM     23  C14 <0> d          -5.180   4.114   3.959  0.00  0.00     0.121 A 
ATOM     24  S2  <0> d          -3.622   4.044   4.829  0.00  0.00    -0.069 SA
ATOM     25  C17 <0> d          -3.575   5.736   5.397  0.00  0.00     0.052 A 
ATOM     26  C16 <0> d          -4.735   6.231   4.900  0.00  0.00     0.028 A 
ATOM     27 Br1  <0> d          -2.253   6.607   6.431  0.00  0.00    -0.043 Br
ATOM     28  C15 <0> d          -5.557   5.400   4.163  0.00  0.00     0.035 A 
ENDBRANCH  20  23
ENDBRANCH  18  20
ENDBRANCH   4  18
TORSDOF 4
ENDMDL
MODEL ZINC09690781
REMARK  6 active torsions:
REMARK  status: ('A' for Active; 'I' for Inactive)
REMARK    1  A    between atoms: C7_11  and  S2_12 
REMARK    2  A    between atoms: S2_12  and  C8_13 
REMARK    3  A    between atoms: C8_13  and  C9_14 
REMARK       I    between atoms: C9_14  and  N3_16 
REMARK    4  A    between atoms: N3_16  and  C10_17 
REMARK    5  A    between atoms: C10_17  and  C11_18 
REMARK    6  A    between atoms: C11_18  and  C12_19 
ROOT
ATOM      1  C8  <0> d           0.606  -2.171  -1.026  0.00  0.00     0.185 C 
ENDROOT
BRANCH   1   2
ATOM      2  S2  <0> d           1.453  -2.755  -2.515  0.00  0.00    -0.082 SA
BRANCH   2   3
ATOM      3  C7  <0> d           1.334  -4.496  -2.272  0.00  0.00     0.172 A 
ATOM      4  N1  <0> d           1.869  -5.325  -3.217  0.00  0.00    -0.296 N 
ATOM      5  C1  <0> d           2.527  -4.771  -4.403  0.00  0.00     0.162 C 
ATOM      6  C2  <0> d           1.790  -6.666  -3.041  0.00  0.00     0.268 A 
ATOM      7  O1  <0> d           2.261  -7.434  -3.863  0.00  0.00    -0.266 OA
ATOM      8  C3  <0> d           1.150  -7.144  -1.900  0.00  0.00     0.102 A 
ATOM      9  S1  <0> d           0.796  -8.753  -1.243  0.00  0.00    -0.094 SA
ATOM     10  C4  <0> d           0.601  -6.272  -0.943  0.00  0.00     0.082 A 
ATOM     11  C6  <0> d          -0.048  -8.239   0.244  0.00  0.00     0.053 A 
ATOM     12  C5  <0> d          -0.013  -6.892   0.155  0.00  0.00     0.040 A 
ATOM     13  N2  <0> d           0.733  -4.937  -1.200  0.00  0.00    -0.223 NA
ENDBRANCH   2   3
ENDBRANCH   1   2
BRANCH   1  14
ATOM     14  C9  <0> d           0.585  -0.664  -1.018  0.00  0.00     0.227 C 
ATOM     15  O2  <0> d           1.093  -0.046  -1.929  0.00  0.00    -0.273 OA
ATOM     16  N3  <0> d           0.002  -0.004   0.002  0.00  0.00    -0.360 N 
ATOM     17  H8  <0> d          -0.404  -0.499   0.731  0.00  0.00     0.162 HD
BRANCH  16  18
ATOM     18  C10 <0> d          -0.018   1.461   0.010  0.00  0.00     0.127 C 
BRANCH  18  19
ATOM     19  C11 <0> d          -0.734   1.954   1.269  0.00  0.00     0.058 C 
BRANCH  19  20
ATOM     20  C12 <0> d          -0.754   3.461   1.277  0.00  0.00    -0.057 A 
ATOM     21  C17 <0> d          -1.806   4.141   0.692  0.00  0.00     0.009 A 
ATOM     22  C16 <0> d          -1.826   5.523   0.699  0.00  0.00     0.024 A 
ATOM     23  C15 <0> d          -0.792   6.226   1.292  0.00  0.00     0.034 A 
ATOM     24  C14 <0> d           0.261   5.545   1.878  0.00  0.00     0.024 A 
ATOM     25 Cl1  <0> d          -0.815   7.962   1.301  0.00  0.00    -0.084 Cl
ATOM     26  C13 <0> d           0.276   4.163   1.875  0.00  0.00     0.009 A 
ENDBRANCH  19  20
ENDBRANCH  18  19
ENDBRANCH  16  18
ENDBRANCH   1  14
TORSDOF 6
ENDMDL
MODEL ZINC95085692
REMARK  6 active torsions:
REMARK  status: ('A' for Active; 'I' for Inactive)
REMARK    1  A    between atoms: C2_2  and  O1_5 
REMARK    2  A    between atoms: O1_5  and  C5_6 
REMARK       I    between atoms: C5_6  and  N1_8 
REMARK    3  A    between atoms: C9_12  and  C10_13 
REMARK    4  A    between atoms: C10_13  and  N2_14 
REMARK       I    between atoms: N2_14  and  C11_15 
REMARK    5  A    between atoms: C11_15  and  C12_17 
REMARK    6  A    between atoms: C12_17  and  C13_18 
ROOT
ATOM      1  C5  <0> d           2.056  -0.133  -1.200  0.00  0.00     0.363 C 
ATOM      2  O2  <0> d           2.637   0.569  -0.396  0.00  0.00    -0.238 OA
ATOM      3  N1  <0> d           2.675  -0.511  -2.336  0.00  0.00    -0.322 N 
ATOM      4  C6  <0> d           2.131  -1.436  -3.341  0.00  0.00     0.129 C 
ATOM      5  C7  <0> d           3.174  -1.547  -4.473  0.00  0.00     0.022 C 
ATOM      6  C8  <0> d           3.998  -0.242  -4.315  0.00  0.00     0.029 C 
ATOM      7  C9  <0> d           4.007  -0.061  -2.779  0.00  0.00     0.107 C 
ENDROOT
BRANCH   7   8
ATOM      8  C10 <0> d           4.220   1.410  -2.417  0.00  0.00     0.148 C 
BRANCH   8   9
ATOM      9  N2  <0> d           3.117   2.210  -2.956  0.00  0.00    -0.359 N 
ATOM     10  C11 <0> d           3.143   3.553  -2.846  0.00  0.00     0.221 C 
ATOM     11  O3  <0> d           4.079   4.099  -2.302  0.00  0.00    -0.273 OA
ATOM     12  H19 <0> d           2.369   1.773  -3.391  0.00  0.00     0.162 HD
BRANCH  10  13
ATOM     13  C12 <0> d           2.009   4.376  -3.400  0.00  0.00     0.141 C 
BRANCH  13  14
ATOM     14  C13 <0> d           2.280   5.837  -3.150  0.00  0.00    -0.043 A 
ATOM     15  C16 <0> d           2.958   6.577  -4.062  0.00  0.00     0.057 A 
ATOM     16  S1  <0> d           2.989   8.183  -3.283  0.00  0.00    -0.113 SA
ATOM     17  C15 <0> d           2.105   7.758  -1.792  0.00  0.00     0.050 A 
ATOM     18  C14 <0> d           1.845   6.442  -1.986  0.00  0.00     0.015 A 
ENDBRANCH  13  14
ENDBRANCH  10  13
ENDBRANCH   8   9
ENDBRANCH   7   8
BRANCH   1  19
ATOM     19  O1  <0> d           0.793  -0.532  -0.957  0.00  0.00    -0.294 OA
BRANCH  19  20
ATOM     20  C2  <0> d           0.198  -0.093   0.266  0.00  0.00     0.061 C 
ATOM     21  C1  <0> d           0.159   1.436   0.294  0.00  0.00     0.046 C 
ATOM     22  C3  <0> d           1.026  -0.604   1.448  0.00  0.00     0.046 C 
ATOM     23  C4  <0> d          -1.226  -0.642   0.366  0.00  0.00     0.046 C 
ENDBRANCH  19  20
ENDBRANCH   1  19
TORSDOF 6
ENDMDL
MODEL ZINC09742768
REMARK  7 active torsions:
REMARK  status: ('A' for Active; 'I' for Inactive)
REMARK    1  A    between atoms: C2_2  and  C3_3 
REMARK    2  A    between atoms: C2_2  and  O3_15 
REMARK       I    between atoms: C3_3  and  N1_5 
REMARK       I    between atoms: N1_5  and  C4_6 
REMARK       I    between atoms: C4_6  and  N2_8 
REMARK    3  A    between atoms: N2_8  and  C5_9 
REMARK    4  A    between atoms: O3_15  and  C11_16 
REMARK    5  A    between atoms: C11_16  and  C12_18 
REMARK    6  A    between atoms: C14_20  and  S1_25 
REMARK    7  A    between atoms: S1_25  and  N3_28 
ROOT
ATOM      1  C1  <0> d          -4.031  -2.441   4.898  0.00  0.00     0.050 C 
ATOM      2  C2  <0> d          -4.724  -1.584   3.836  0.00  0.00     0.220 C 
ENDROOT
BRANCH   2   3
ATOM      3  C3  <0> d          -5.363  -2.479   2.807  0.00  0.00     0.254 C 
ATOM      4  O1  <0> d          -4.964  -2.467   1.662  0.00  0.00    -0.270 OA
ATOM      5  N1  <0> d          -6.377  -3.293   3.158  0.00  0.00    -0.277 N 
ATOM      6  C4  <0> d          -6.949  -4.094   2.237  0.00  0.00     0.327 C 
ATOM      7  H5  <0> d          -6.697  -3.303   4.074  0.00  0.00     0.173 HD
ATOM      8  O2  <0> d          -6.549  -4.082   1.089  0.00  0.00    -0.247 OA
ATOM      9  N2  <0> d          -7.964  -4.909   2.588  0.00  0.00    -0.309 N 
ATOM     10  H6  <0> d          -8.239  -4.968   3.517  0.00  0.00     0.170 HD
BRANCH   9  11
ATOM     11  C5  <0> d          -8.621  -5.668   1.614  0.00  0.00     0.036 A 
ATOM     12  C10 <0> d          -7.911  -6.184   0.538  0.00  0.00     0.029 A 
ATOM     13  C9  <0> d          -8.562  -6.934  -0.422  0.00  0.00     0.002 A 
ATOM     14  C8  <0> d          -9.920  -7.171  -0.312  0.00  0.00     0.000 A 
ATOM     15  C7  <0> d         -10.630  -6.659   0.759  0.00  0.00     0.002 A 
ATOM     16  C6  <0> d          -9.983  -5.913   1.724  0.00  0.00     0.029 A 
ENDBRANCH   9  11
ENDBRANCH   2   3
BRANCH   2  17
ATOM     17  O3  <0> d          -3.745  -0.726   3.192  0.00  0.00    -0.303 OA
BRANCH  17  18
ATOM     18  C11 <0> d          -3.538   0.486   3.742  0.00  0.00     0.295 C 
ATOM     19  O4  <0> d          -4.157   0.818   4.732  0.00  0.00    -0.259 OA
BRANCH  18  20
ATOM     20  C12 <0> d          -2.557   1.411   3.140  0.00  0.00     0.062 A 
ATOM     21  C17 <0> d          -2.339   2.670   3.707  0.00  0.00     0.050 A 
ATOM     22  C16 <0> d          -1.420   3.530   3.138  0.00  0.00     0.026 A 
ATOM     23 Cl1  <0> d          -3.222   3.151   5.122  0.00  0.00    -0.083 Cl
ATOM     24  C15 <0> d          -0.713   3.146   2.014  0.00  0.00     0.027 A 
ATOM     25  C14 <0> d          -0.928   1.902   1.444  0.00  0.00     0.080 A 
ATOM     26  C13 <0> d          -1.842   1.033   2.001  0.00  0.00     0.044 A 
BRANCH  25  27
ATOM     27  S1  <0> d          -0.026   1.426   0.008  0.00  0.00     0.258 S 
ATOM     28  O5  <0> d          -0.007   0.006  -0.008  0.00  0.00    -0.201 OA
ATOM     29  O6  <0> d           1.164   2.204  -0.001  0.00  0.00    -0.201 OA
BRANCH  27  30
ATOM     30  N3  <0> d          -0.912   1.903  -1.308  0.00  0.00    -0.320 N 
ATOM     31  C18 <0> d          -1.140   3.328  -1.560  0.00  0.00     0.159 C 
ATOM     32  H15 <0> d          -1.280   1.239  -1.911  0.00  0.00     0.171 HD
ENDBRANCH  27  30
ENDBRANCH  25  27
ENDBRANCH  18  20
ENDBRANCH  17  18
ENDBRANCH   2  17
TORSDOF 7
ENDMDL
MODEL ZINC48244598
REMARK  4 active torsions:
REMARK  status: ('A' for Active; 'I' for Inactive)
REMARK    1  A    between atoms: C4_4  and  N3_18 
REMARK    2  A    between atoms: C5_5  and  N2_17 
REMARK    3  A    between atoms: C6_6  and  C7_7 
REMARK       I    between atoms: C7_7  and  N1_9 
REMARK    4  A    between atoms: N1_9  and  C8_10 
ROOT
ATOM      1  C1  <0> d          -0.031   1.367   0.021  0.00  0.00     0.061 A 
ATOM      2  C2  <0> d           1.141   2.096   0.016  0.00  0.00     0.119 A 
ATOM      3  C3  <0> d           2.368   1.448  -0.011  0.00  0.00     0.080 A 
ATOM      4  C4  <0> d           2.430   0.070  -0.032  0.00  0.00     0.133 A 
ATOM      5  C5  <0> d           1.260  -0.680  -0.028  0.00  0.00     0.075 A 
ATOM      6  C6  <0> d           0.017  -0.029   0.000  0.00  0.00     0.063 A 
ATOM      7  F1  <0> d           1.094   3.446   0.036  0.00  0.00    -0.206 F 
ENDROOT
BRANCH   6   8
ATOM      8  C7  <0> d          -1.231  -0.814   0.006  0.00  0.00     0.254 C 
ATOM      9  O1  <0> d          -1.186  -2.026   0.094  0.00  0.00    -0.268 OA
ATOM     10  N1  <0> d          -2.421  -0.188  -0.085  0.00  0.00    -0.352 N 
ATOM     11  H3  <0> d          -2.456   0.778  -0.155  0.00  0.00     0.163 HD
BRANCH  10  12
ATOM     12  C8  <0> d          -3.661  -0.968  -0.079  0.00  0.00     0.084 C 
ATOM     13  C14 <0> d          -4.745  -0.126   0.402  0.00  0.00     0.025 C 
ATOM     14  C13 <0> d          -6.082  -0.889   0.504  0.00  0.00     0.002 C 
ATOM     15  C12 <0> d          -6.692  -0.972  -0.869  0.00  0.00     0.000 C 
ATOM     16  C11 <0> d          -6.329  -2.280  -1.597  0.00  0.00     0.000 C 
ATOM     17  C10 <0> d          -4.854  -2.682  -1.405  0.00  0.00     0.002 C 
ATOM     18  C9  <0> d          -3.920  -1.506  -1.501  0.00  0.00     0.025 C 
ENDBRANCH  10  12
ENDBRANCH   6   8
BRANCH   5  19
ATOM     19  N2  <0> d           1.321  -2.068  -0.050  0.00  0.00    -0.396 N 
ATOM     20  H17 <0> d           2.039  -2.530   0.412  0.00  0.00     0.156 HD
ATOM     21  H18 <0> d           0.646  -2.576  -0.527  0.00  0.00     0.156 HD
ENDBRANCH   5  19
BRANCH   4  22
ATOM     22  N3  <0> d           3.744  -0.611  -0.061  0.00  0.00    -0.113 N 
ATOM     23  O2  <0> d           4.759   0.039  -0.153  0.00  0.00    -0.532 OA
ATOM     24  O3  <0> d           3.802  -1.817   0.009  0.00  0.00    -0.532 OA
ENDBRANCH   4  22
TORSDOF 4
ENDMDL
MODEL ZINC62219052
REMARK  6 active torsions:
REMARK  status: ('A' for Active; 'I' for Inactive)
REMARK    1  A    between atoms: C3_3  and  N1_11 
REMARK    2  A    between atoms: C6_6  and  C7_7 
REMARK    3  A    between atoms: C7_7  and  C8_8 
REMARK    4  A    between atoms: C9_12  and  C12_18 
REMARK    5  A    between atoms: C10_13  and  C11_16 
REMARK    6  A    between atoms: C11_16  and  N4_17 
ROOT
ATOM      1  N1  <0> d           3.595   2.010   0.153  0.00  0.00    -0.217 N 
ATOM      2  C9  <0> d           4.814   1.793   0.720  0.00  0.00     0.070 A 
ATOM      3  C10 <0> d           5.596   2.828   0.335  0.00  0.00     0.108 A 
ATOM      4  N2  <0> d           4.836   3.614  -0.435  0.00  0.00    -0.133 NA
ATOM      5  N3  <0> d           3.660   3.101  -0.528  0.00  0.00    -0.060 NA
ENDROOT
BRANCH   1   6
ATOM      6  C3  <0> d           2.468   1.187   0.282  0.00  0.00     0.060 A 
ATOM      7  C2  <0> d           2.136   0.651   1.520  0.00  0.00     0.032 A 
ATOM      8  C1  <0> d           1.025  -0.160   1.644  0.00  0.00     0.010 A 
ATOM      9  C6  <0> d           0.243  -0.438   0.538  0.00  0.00    -0.048 A 
ATOM     10  C5  <0> d           0.571   0.094  -0.696  0.00  0.00     0.010 A 
ATOM     11  C4  <0> d           1.681   0.905  -0.826  0.00  0.00     0.032 A 
BRANCH   9  12
ATOM     12  C7  <0> d          -0.969  -1.323   0.677  0.00  0.00     0.151 C 
BRANCH  12  13
ATOM     13  C8  <0> d          -2.173  -0.479   1.003  0.00  0.00     0.176 C 
ATOM     14  O1  <0> d          -2.059   0.730   1.112  0.00  0.00    -0.648 OA
ATOM     15  O2  <0> d          -3.263  -1.004   1.157  0.00  0.00    -0.648 OA
ENDBRANCH  12  13
ENDBRANCH   9  12
ENDBRANCH   1   6
BRANCH   2  16
ATOM     16  C12 <0> d           5.210   0.634   1.599  0.00  0.00     0.040 C 
ATOM     17  C17 <0> d           6.460  -0.036   1.026  0.00  0.00     0.011 C 
ATOM     18  C16 <0> d           6.863  -1.212   1.918  0.00  0.00     0.001 C 
ATOM     19  C15 <0> d           7.159  -0.703   3.330  0.00  0.00     0.000 C 
ATOM     20  C14 <0> d           5.910  -0.032   3.903  0.00  0.00     0.001 C 
ATOM     21  C13 <0> d           5.507   1.144   3.011  0.00  0.00     0.011 C 
ENDBRANCH   2  16
BRANCH   3  22
ATOM     22  C11 <0> d           7.041   3.050   0.701  0.00  0.00     0.292 C 
BRANCH  22  23
ATOM     23  N4  <0> d           7.903   2.552  -0.380  0.00  0.00    -0.074 N 
ATOM     24  H9  <0> d           7.652   3.005  -1.246  0.00  0.00     0.274 HD
ATOM     25  H10 <0> d           8.867   2.755  -0.161  0.00  0.00     0.274 HD
ATOM     26  H22 <0> d           7.781   1.555  -0.474  0.00  0.00     0.274 HD
ENDBRANCH  22  23
ENDBRANCH   3  22
TORSDOF 6
ENDMDL
MODEL ZINC95363710
REMARK  6 active torsions:
REMARK  status: ('A' for Active; 'I' for Inactive)
REMARK    1  A    between atoms: C2_2  and  N1_3 
REMARK       I    between atoms: N1_3  and  C3_4 
REMARK    2  A    between atoms: C3_4  and  C4_6 
REMARK    3  A    between atoms: C6_8  and  N5_18 
REMARK    4  A    between atoms: N2_10  and  C8_11 
REMARK    5  A    between atoms: C8_11  and  C9_12 
REMARK       I    between atoms: N5_18  and  C13_19 
REMARK    6  A    between atoms: C13_19  and  C14_21 
ROOT
ATOM      1  C4  <0> d          -3.018  -2.359  -0.014  0.00  0.00     0.316 C 
ATOM      2  C5  <0> d          -3.686  -1.983   1.325  0.00  0.00     0.072 C 
ATOM      3  C6  <0> d          -4.527  -3.243   1.662  0.00  0.00     0.115 C 
ATOM      4  C7  <0> d          -3.615  -4.378   1.133  0.00  0.00     0.299 C 
ATOM      5  N2  <0> d          -3.008  -3.830  -0.103  0.00  0.00     0.111 N 
ENDROOT
BRANCH   3   6
ATOM      6  N5  <0> d          -4.733  -3.365   3.107  0.00  0.00    -0.350 N 
ATOM      7  C13 <0> d          -5.799  -4.041   3.581  0.00  0.00     0.254 C 
ATOM      8  O2  <0> d          -6.588  -4.549   2.810  0.00  0.00    -0.268 OA
ATOM      9  H20 <0> d          -4.103  -2.959   3.723  0.00  0.00     0.163 HD
BRANCH   7  10
ATOM     10  C14 <0> d          -6.007  -4.164   5.040  0.00  0.00     0.067 A 
ATOM     11  C17 <0> d          -7.106  -4.862   5.553  0.00  0.00     0.137 A 
ATOM     12  N7  <0> d          -7.251  -4.951   6.864  0.00  0.00    -0.245 NA
ATOM     13  C16 <0> d          -6.385  -4.387   7.682  0.00  0.00     0.121 A 
ATOM     14  N6  <0> d          -5.338  -3.716   7.241  0.00  0.00    -0.245 NA
ATOM     15  C18 <0> d          -6.597  -4.512   9.169  0.00  0.00     0.093 C 
ATOM     16  C15 <0> d          -5.114  -3.582   5.946  0.00  0.00     0.137 A 
ENDBRANCH   7  10
ENDBRANCH   3   6
BRANCH   1  17
ATOM     17  C3  <0> d          -1.606  -1.833  -0.047  0.00  0.00     0.251 C 
ATOM     18  N1  <0> d          -1.275  -0.845  -0.901  0.00  0.00    -0.360 N 
ATOM     19  H8  <0> d          -1.945  -0.471  -1.494  0.00  0.00     0.162 HD
ATOM     20  O1  <0> d          -0.767  -2.301   0.694  0.00  0.00    -0.271 OA
BRANCH  18  21
ATOM     21  C2  <0> d           0.098  -0.334  -0.933  0.00  0.00     0.118 C 
ATOM     22  C1  <0> d           0.205   0.776  -1.981  0.00  0.00     0.026 C 
ENDBRANCH  18  21
ENDBRANCH   1  17
BRANCH   5  23
ATOM     23  C8  <0> d          -1.642  -4.337  -0.288  0.00  0.00     0.349 C 
BRANCH  23  24
ATOM     24  C9  <0> d          -1.696  -5.764  -0.770  0.00  0.00     0.111 A 
ATOM     25  N4  <0> d          -1.810  -6.856   0.015  0.00  0.00    -0.348 N 
ATOM     26  C11 <0> d          -1.826  -7.949  -0.809  0.00  0.00     0.108 A 
ATOM     27  C12 <0> d          -1.901  -6.870   1.478  0.00  0.00     0.157 C 
ATOM     28  C10 <0> d          -1.714  -7.487  -2.069  0.00  0.00     0.106 A 
ATOM     29  N3  <0> d          -1.637  -6.149  -2.016  0.00  0.00    -0.353 N 
ATOM     30  H26 <0> d          -1.550  -5.561  -2.782  0.00  0.00     0.166 HD
ENDBRANCH  23  24
ENDBRANCH   5  23
TORSDOF 6
ENDMDL
MODEL ZINC63935525
REMARK  7 active torsions:
REMARK  status: ('A' for Active; 'I' for Inactive)
REMARK       I    between atoms: C2_2  and  N1_4 
REMARK    1  A    between atoms: N1_4  and  C3_5 
REMARK    2  A    between atoms: C3_5  and  C4_6 
REMARK    3  A    between atoms: C4_6  and  C5_7 
REMARK    4  A    between atoms: C5_7  and  O2_8 
REMARK    5  A    between atoms: O2_8  and  C6_9 
REMARK    6  A    between atoms: C6_9  and  C7_11 
REMARK    7  A    between atoms: N2_15  and  C11_17 
ROOT
ATOM      1  C7  <0> d           0.038  -6.536  -5.559  0.00  0.00     0.112 C 
ATOM      2  C8  <0> d          -1.277  -6.186  -6.294  0.00  0.00     0.119 C 
ATOM      3  C9  <0> d          -1.583  -7.421  -7.113  0.00  0.00     0.225 C 
ATOM      4  O4  <0> d          -2.366  -7.463  -8.039  0.00  0.00    -0.273 OA
ATOM      5  N2  <0> d          -0.862  -8.463  -6.666  0.00  0.00    -0.316 N 
ATOM      6  C10 <0> d          -0.018  -8.079  -5.527  0.00  0.00     0.147 C 
ENDROOT
BRANCH   1   7
ATOM      7  C6  <0> d           0.044  -5.967  -4.163  0.00  0.00     0.265 C 
ATOM      8  O3  <0> d           0.063  -6.708  -3.209  0.00  0.00    -0.265 OA
BRANCH   7   9
ATOM      9  O2  <0> d           0.027  -4.638  -3.980  0.00  0.00    -0.321 OA
BRANCH   9  10
ATOM     10  C5  <0> d           0.034  -4.168  -2.631  0.00  0.00     0.180 C 
BRANCH  10  11
ATOM     11  C4  <0> d           0.013  -2.639  -2.622  0.00  0.00     0.046 C 
BRANCH  11  12
ATOM     12  C3  <0> d           0.020  -2.136  -1.177  0.00  0.00     0.124 C 
BRANCH  12  13
ATOM     13  N1  <0> d           0.000  -0.672  -1.169  0.00  0.00    -0.361 N 
ATOM     14  C2  <0> d           0.002  -0.004   0.002  0.00  0.00     0.213 C 
ATOM     15  C1  <0> d          -0.018   1.503   0.010  0.00  0.00     0.117 C 
ATOM     16  O1  <0> d           0.020  -0.616   1.049  0.00  0.00    -0.274 OA
ATOM     17  H5  <0> d          -0.015  -0.182  -2.006  0.00  0.00     0.162 HD
ENDBRANCH  12  13
ENDBRANCH  11  12
ENDBRANCH  10  11
ENDBRANCH   9  10
ENDBRANCH   7   9
ENDBRANCH   1   7
BRANCH   5  18
ATOM     18  C11 <0> d          -0.908  -9.746  -7.214  0.00  0.00     0.048 A 
ATOM     19  C16 <0> d          -1.833 -10.695  -6.728  0.00  0.00     0.001 A 
ATOM     20  C15 <0> d          -1.865 -11.989  -7.303  0.00  0.00    -0.024 A 
ATOM     21  C17 <0> d          -2.724 -10.379  -5.691  0.00  0.00     0.014 A 
ATOM     22  C14 <0> d          -0.971 -12.309  -8.338  0.00  0.00     0.012 A 
ATOM     23  C20 <0> d          -2.791 -12.933  -6.822  0.00  0.00     0.012 A 
ATOM     24  C13 <0> d          -0.086 -11.376  -8.784  0.00  0.00     0.003 A 
ATOM     25  C12 <0> d          -0.048 -10.100  -8.231  0.00  0.00     0.030 A 
ATOM     26  C19 <0> d          -3.632 -12.594  -5.807  0.00  0.00     0.001 A 
ATOM     27  C18 <0> d          -3.603 -11.319  -5.247  0.00  0.00     0.001 A 
ENDBRANCH   5  18
TORSDOF 7
ENDMDL
MODEL ZINC95382756
REMARK  4 active torsions:
REMARK  status: ('A' for Active; 'I' for Inactive)
REMARK    1  A    between atoms: C6_7  and  N3_11 
REMARK    2  A    between atoms: C10_14  and  N4_17 
REMARK    3  A    between atoms: N4_17  and  C13_18 
REMARK    4  A    between atoms: C13_18  and  C14_19 
ROOT
ATOM      1  N3  <0> d           0.001   1.133   2.608  0.00  0.00    -0.365 N 
ATOM      2  C8  <0> d          -0.246   2.082   1.514  0.00  0.00     0.126 C 
ATOM      3  C9  <0> d           0.891   3.109   1.486  0.00  0.00     0.053 C 
ATOM      4  C10 <0> d           1.020   3.759   2.866  0.00  0.00     0.189 C 
ATOM      5  C11 <0> d           1.360   2.689   3.906  0.00  0.00     0.053 C 
ATOM      6  C12 <0> d           0.223   1.658   3.962  0.00  0.00     0.126 C 
ENDROOT
BRANCH   4   7
ATOM      7  N4  <0> d           2.088   4.768   2.833  0.00  0.00    -0.067 N 
ATOM      8  H15 <0> d           2.974   4.314   2.668  0.00  0.00     0.277 HD
ATOM      9  H27 <0> d           1.904   5.428   2.093  0.00  0.00     0.277 HD
BRANCH   7  10
ATOM     10  C13 <0> d           2.132   5.475   4.120  0.00  0.00     0.275 C 
BRANCH  10  11
ATOM     11  C14 <0> d           3.227   6.510   4.087  0.00  0.00     0.017 A 
ATOM     12  C16 <0> d           3.091   7.839   3.673  0.00  0.00     0.060 A 
ATOM     13  N6  <0> d           4.256   8.424   3.790  0.00  0.00    -0.179 NA
ATOM     14  C17 <0> d           1.822   8.486   3.183  0.00  0.00     0.073 C 
ATOM     15  N5  <0> d           5.173   7.482   4.272  0.00  0.00    -0.282 N 
ATOM     16  C15 <0> d           4.517   6.315   4.446  0.00  0.00     0.034 A 
ATOM     17  H1  <0> d           6.114   7.639   4.449  0.00  0.00     0.189 HD
ATOM     18  C18 <0> d           5.115   5.027   4.951  0.00  0.00     0.070 C 
ENDBRANCH  10  11
ENDBRANCH   7  10
ENDBRANCH   4   7
BRANCH   1  19
ATOM     19  C6  <0> d           0.018  -0.229   2.369  0.00  0.00     0.140 A 
ATOM     20  C5  <0> d          -1.196  -0.970   2.340  0.00  0.00     0.052 A 
ATOM     21  C2  <0> d          -2.564  -0.521   2.533  0.00  0.00    -0.032 A 
ATOM     22  C4  <0> d          -1.055  -2.353   2.092  0.00  0.00     0.114 A 
ATOM     23  C1  <0> d          -2.857   0.931   2.812  0.00  0.00     0.050 C 
ATOM     24  C3  <0> d          -3.563  -1.412   2.455  0.00  0.00    -0.012 A 
ATOM     25  S1  <0> d          -2.725  -2.949   2.119  0.00  0.00    -0.074 SA
ATOM     26  C19 <0> d          -5.042  -1.171   2.615  0.00  0.00     0.057 C 
ATOM     27  N2  <0> d           0.129  -2.900   1.903  0.00  0.00    -0.234 NA
ATOM     28  C7  <0> d           1.220  -2.158   1.931  0.00  0.00     0.236 A 
ATOM     29  N1  <0> d           1.163  -0.859   2.163  0.00  0.00    -0.224 NA
ENDBRANCH   1  19
TORSDOF 4
ENDMDL
MODEL ZINC95415375
REMARK  5 active torsions:
REMARK  status: ('A' for Active; 'I' for Inactive)
REMARK    1  A    between atoms: C2_2  and  C3_3 
REMARK    2  A    between atoms: C2_2  and  C10_14 
REMARK    3  A    between atoms: C3_3  and  N1_4 
REMARK       I    between atoms: N1_4  and  C4_5 
REMARK    4  A    between atoms: C4_5  and  C5_7 
REMARK    5  A    between atoms: C14_18  and  C16_20 
ROOT
ATOM      1  C3  <0> d          -1.433  -0.534   0.013  0.00  0.00     0.131 C 
ENDROOT
BRANCH   1   2
ATOM      2  C2  <0> d           0.002  -0.004   0.002  0.00  0.00     0.032 C 
ATOM      3  C1  <0> d          -0.019   1.526   0.010  0.00  0.00     0.017 C 
BRANCH   2   4
ATOM      4  C10 <0> d           0.707  -0.490  -1.238  0.00  0.00    -0.052 A 
ATOM      5  C15 <0> d           1.843  -1.270  -1.126  0.00  0.00     0.023 A 
ATOM      6  C14 <0> d           2.488  -1.719  -2.264  0.00  0.00     0.048 A 
ATOM      7  C13 <0> d           2.002  -1.381  -3.513  0.00  0.00     0.016 A 
ATOM      8  C12 <0> d           0.869  -0.597  -3.624  0.00  0.00     0.001 A 
ATOM      9  C11 <0> d           0.222  -0.151  -2.487  0.00  0.00     0.007 A 
BRANCH   6  10
ATOM     10  C16 <0> d           3.722  -2.575  -2.142  0.00  0.00     0.417 C 
ATOM     11  F1  <0> d           4.193  -2.899  -3.419  0.00  0.00    -0.166 F 
ATOM     12  F2  <0> d           4.711  -1.871  -1.446  0.00  0.00    -0.166 F 
ATOM     13  F3  <0> d           3.410  -3.749  -1.448  0.00  0.00    -0.166 F 
ENDBRANCH   6  10
ENDBRANCH   2   4
ENDBRANCH   1   2
BRANCH   1  14
ATOM     14  N1  <0> d          -2.082  -0.162   1.273  0.00  0.00    -0.360 N 
ATOM     15  C4  <0> d          -3.358  -0.524   1.506  0.00  0.00     0.222 C 
ATOM     16  O1  <0> d          -3.971  -1.158   0.673  0.00  0.00    -0.273 OA
ATOM     17  H8  <0> d          -1.592   0.345   1.939  0.00  0.00     0.162 HD
BRANCH  15  18
ATOM     18  C5  <0> d          -4.025  -0.141   2.803  0.00  0.00     0.088 C 
ATOM     19  C9  <0> d          -3.260  -0.756   3.977  0.00  0.00     0.117 C 
ATOM     20  C8  <0> d          -4.062  -0.617   5.239  0.00  0.00     0.218 C 
ATOM     21  N2  <0> d          -5.370  -0.357   5.255  0.00  0.00    -0.361 N 
ATOM     22  O2  <0> d          -3.490  -0.749   6.300  0.00  0.00    -0.274 OA
ATOM     23  C7  <0> d          -6.173  -0.129   4.059  0.00  0.00     0.123 C 
ATOM     24  H13 <0> d          -5.815  -0.316   6.116  0.00  0.00     0.162 HD
ATOM     25  C6  <0> d          -5.461  -0.681   2.824  0.00  0.00     0.034 C 
ENDBRANCH  15  18
ENDBRANCH   1  14
TORSDOF 5
ENDMDL
MODEL ZINC95427446
REMARK  8 active torsions:
REMARK  status: ('A' for Active; 'I' for Inactive)
REMARK    1  A    between atoms: C2_2  and  C3_3 
REMARK    2  A    between atoms: C2_2  and  N1_8 
REMARK    3  A    between atoms: C3_3  and  C4_4 
REMARK    4  A    between atoms: C3_3  and  S1_6 
REMARK    5  A    between atoms: C4_4  and  O1_5 
REMARK       I    between atoms: N1_8  and  C6_9 
REMARK    6  A    between atoms: C6_9  and  C7_11 
REMARK    7  A    between atoms: C7_11  and  C8_12 
REMARK    8  A    between atoms: C13_17  and  C14_18 
ROOT
ATOM      1  N1  <0> d           0.711  -0.489   1.189  0.00  0.00    -0.355 N 
ATOM      2  C6  <0> d           2.054  -0.600   1.174  0.00  0.00     0.222 C 
ATOM      3  O2  <0> d           2.676  -0.297   0.177  0.00  0.00    -0.273 OA
ATOM      4  H12 <0> d           0.213  -0.731   1.986  0.00  0.00     0.162 HD
ENDROOT
BRANCH   2   5
ATOM      5  C7  <0> d           2.783  -1.099   2.395  0.00  0.00     0.142 C 
BRANCH   5   6
ATOM      6  C8  <0> d           4.264  -1.128   2.119  0.00  0.00    -0.034 A 
ATOM      7  C13 <0> d           5.022   0.014   2.295  0.00  0.00     0.054 A 
ATOM      8  C12 <0> d           6.382  -0.014   2.046  0.00  0.00     0.017 A 
ATOM      9  C11 <0> d           6.981  -1.181   1.611  0.00  0.00     0.001 A 
ATOM     10  C10 <0> d           6.221  -2.322   1.429  0.00  0.00     0.001 A 
ATOM     11  C9  <0> d           4.863  -2.295   1.683  0.00  0.00     0.008 A 
BRANCH   7  12
ATOM     12  C14 <0> d           4.368   1.288   2.764  0.00  0.00     0.418 C 
ATOM     13  F1  <0> d           5.332   2.296   2.868  0.00  0.00    -0.166 F 
ATOM     14  F2  <0> d           3.386   1.673   1.846  0.00  0.00    -0.166 F 
ATOM     15  F3  <0> d           3.779   1.076   4.016  0.00  0.00    -0.166 F 
ENDBRANCH   7  12
ENDBRANCH   5   6
ENDBRANCH   2   5
BRANCH   1  16
ATOM     16  C2  <0> d           0.002  -0.004   0.002  0.00  0.00     0.096 C 
ATOM     17  C1  <0> d          -0.019   1.526   0.010  0.00  0.00     0.033 C 
BRANCH  16  18
ATOM     18  C3  <0> d          -1.433  -0.534   0.013  0.00  0.00     0.092 C 
BRANCH  18  19
ATOM     19  C4  <0> d          -1.413  -2.059   0.130  0.00  0.00     0.181 C 
BRANCH  19  20
ATOM     20  O1  <0> d          -0.612  -2.607  -0.918  0.00  0.00    -0.400 OA
ATOM     21  H8  <0> d          -0.554  -3.572  -0.906  0.00  0.00     0.209 HD
ENDBRANCH  19  20
ENDBRANCH  18  19
BRANCH  18  22
ATOM     22  S1  <0> d          -2.265  -0.057  -1.527  0.00  0.00    -0.165 SA
ATOM     23  C5  <0> d          -3.975  -0.618  -1.294  0.00  0.00     0.090 C 
ENDBRANCH  18  22
ENDBRANCH  16  18
ENDBRANCH   1  16
TORSDOF 8
ENDMDL
MODEL ZINC95441080
REMARK  5 active torsions:
REMARK  status: ('A' for Active; 'I' for Inactive)
REMARK    1  A    between atoms: C2_2  and  C3_3 
REMARK    2  A    between atoms: N2_7  and  C6_8 
REMARK    3  A    between atoms: C6_8  and  C7_9 
REMARK       I    between atoms: C7_9  and  N3_11 
REMARK    4  A    between atoms: N3_11  and  C8_12 
REMARK    5  A    between atoms: C11_15  and  C14_18 
ROOT
ATOM      1  C7  <0> d          -1.738   0.555  -3.114  0.00  0.00     0.240 C 
ATOM      2  O1  <0> d          -0.911   1.440  -3.182  0.00  0.00    -0.271 OA
ATOM      3  N3  <0> d          -3.025   0.809  -3.426  0.00  0.00    -0.326 N 
ATOM      4  H10 <0> d          -3.673   0.088  -3.436  0.00  0.00     0.169 HD
ENDROOT
BRANCH   3   5
ATOM      5  C8  <0> d          -3.425   2.114  -3.735  0.00  0.00     0.034 A 
ATOM      6  C13 <0> d          -2.563   2.962  -4.419  0.00  0.00     0.030 A 
ATOM      7  C12 <0> d          -2.963   4.247  -4.729  0.00  0.00     0.018 A 
ATOM      8  C11 <0> d          -4.215   4.694  -4.348  0.00  0.00     0.048 A 
ATOM      9  C10 <0> d          -5.073   3.854  -3.662  0.00  0.00     0.018 A 
ATOM     10  C9  <0> d          -4.682   2.565  -3.355  0.00  0.00     0.030 A 
BRANCH   8  11
ATOM     11  C14 <0> d          -4.646   6.099  -4.682  0.00  0.00     0.417 C 
ATOM     12  F1  <0> d          -4.281   6.958  -3.640  0.00  0.00    -0.166 F 
ATOM     13  F2  <0> d          -4.023   6.509  -5.865  0.00  0.00    -0.166 F 
ATOM     14  F3  <0> d          -6.035   6.134  -4.849  0.00  0.00    -0.166 F 
ENDBRANCH   8  11
ENDBRANCH   3   5
BRANCH   1  15
ATOM     15  C6  <0> d          -1.328  -0.828  -2.679  0.00  0.00     0.232 C 
BRANCH  15  16
ATOM     16  N2  <0> d           0.110  -0.846  -2.398  0.00  0.00    -0.337 N 
ATOM     17  C3  <0> d           0.704  -0.498  -1.237  0.00  0.00     0.083 A 
ATOM     18  N1  <0> d           1.994  -0.648  -1.365  0.00  0.00    -0.354 N 
ATOM     19  C4  <0> d           2.267  -1.087  -2.603  0.00  0.00     0.106 A 
ATOM     20  H15 <0> d           2.651  -0.470  -0.674  0.00  0.00     0.166 HD
ATOM     21  C5  <0> d           1.102  -1.214  -3.266  0.00  0.00     0.110 A 
BRANCH  17  22
ATOM     22  C2  <0> d          -0.005  -0.021   0.004  0.00  0.00     0.072 C 
ATOM     23  C1  <0> d          -0.029   1.508   0.023  0.00  0.00     0.013 C 
ENDBRANCH  17  22
ENDBRANCH  15  16
ENDBRANCH   1  15
TORSDOF 5
ENDMDL
MODEL ZINC95448393
REMARK  7 active torsions:
REMARK  status: ('A' for Active; 'I' for Inactive)
REMARK    1  A    between atoms: O1_2  and  C2_3 
REMARK    2  A    between atoms: C2_3  and  C3_5 
REMARK    3  A    between atoms: C3_5  and  C4_6 
REMARK    4  A    between atoms: C3_5  and  O4_20 
REMARK    5  A    between atoms: C4_6  and  N1_7 
REMARK       I    between atoms: N1_7  and  C5_8 
REMARK    6  A    between atoms: C5_8  and  C6_10 
REMARK    7  A    between atoms: C11_15  and  C12_16 
ROOT
ATOM      1  N1  <0> d          -0.724  -4.126  -1.321  0.00  0.00    -0.354 N 
ATOM      2  C5  <0> d          -0.267  -4.812  -2.387  0.00  0.00     0.252 C 
ATOM      3  O3  <0> d           0.192  -4.217  -3.342  0.00  0.00    -0.268 OA
ATOM      4  H7  <0> d          -1.090  -4.601  -0.558  0.00  0.00     0.162 HD
ENDROOT
BRANCH   2   5
ATOM      5  C6  <0> d          -0.325  -6.290  -2.394  0.00  0.00     0.047 A 
ATOM      6  C11 <0> d           0.147  -7.004  -3.496  0.00  0.00     0.063 A 
ATOM      7  C10 <0> d           0.096  -8.383  -3.494  0.00  0.00     0.017 A 
ATOM      8  C9  <0> d          -0.432  -9.057  -2.408  0.00  0.00     0.001 A 
ATOM      9  C8  <0> d          -0.907  -8.354  -1.314  0.00  0.00     0.001 A 
ATOM     10  C7  <0> d          -0.856  -6.976  -1.301  0.00  0.00     0.018 A 
BRANCH   6  11
ATOM     11  C12 <0> d           0.718  -6.271  -4.683  0.00  0.00     0.418 C 
ATOM     12  F1  <0> d           1.121  -7.196  -5.652  0.00  0.00    -0.166 F 
ATOM     13  F2  <0> d          -0.258  -5.425  -5.222  0.00  0.00    -0.166 F 
ATOM     14  F3  <0> d           1.820  -5.511  -4.276  0.00  0.00    -0.166 F 
ENDBRANCH   6  11
ENDBRANCH   2   5
BRANCH   1  15
ATOM     15  C4  <0> d          -0.667  -2.662  -1.313  0.00  0.00     0.164 C 
BRANCH  15  16
ATOM     16  C3  <0> d          -1.244  -2.135   0.003  0.00  0.00     0.235 C 
BRANCH  16  17
ATOM     17  C2  <0> d          -1.185  -0.630   0.010  0.00  0.00     0.289 C 
ATOM     18  O2  <0> d          -2.208   0.015   0.023  0.00  0.00    -0.262 OA
BRANCH  17  19
ATOM     19  O1  <0> d           0.002  -0.004   0.002  0.00  0.00    -0.324 OA
ATOM     20  C1  <0> d          -0.017   1.425   0.010  0.00  0.00     0.213 C 
ENDBRANCH  17  19
ENDBRANCH  16  17
BRANCH  16  21
ATOM     21  O4  <0> d          -2.602  -2.560   0.131  0.00  0.00    -0.384 OA
ATOM     22  H12 <0> d          -3.180  -2.249  -0.579  0.00  0.00     0.210 HD
ENDBRANCH  16  21
ENDBRANCH  15  16
ENDBRANCH   1  15
TORSDOF 7
ENDMDL
MODEL ZINC95479209
REMARK  5 active torsions:
REMARK  status: ('A' for Active; 'I' for Inactive)
REMARK    1  A    between atoms: C2_2  and  C4_4 
REMARK    2  A    between atoms: C4_4  and  N1_5 
REMARK    3  A    between atoms: C9_11  and  N3_16 
REMARK       I    between atoms: N3_16  and  C13_17 
REMARK    4  A    between atoms: C13_17  and  C14_19 
REMARK    5  A    between atoms: C14_19  and  C15_20 
ROOT
ATOM      1  N3  <0> d          -1.240  -7.361   2.723  0.00  0.00    -0.327 N 
ATOM      2  C13 <0> d          -0.734  -8.597   2.549  0.00  0.00     0.226 C 
ATOM      3  O2  <0> d          -0.239  -8.905   1.485  0.00  0.00    -0.273 OA
ATOM      4  H14 <0> d          -1.567  -7.089   3.595  0.00  0.00     0.169 HD
ENDROOT
BRANCH   1   5
ATOM      5  C9  <0> d          -1.295  -6.468   1.646  0.00  0.00     0.035 A 
ATOM      6  C8  <0> d          -1.517  -6.951   0.357  0.00  0.00     0.032 A 
ATOM      7  C7  <0> d          -1.575  -6.101  -0.710  0.00  0.00     0.035 A 
ATOM      8  C6  <0> d          -1.411  -4.727  -0.516  0.00  0.00     0.074 A 
ATOM      9  N2  <0> d          -1.462  -3.852  -1.551  0.00  0.00    -0.243 NA
ATOM     10  C11 <0> d          -1.185  -4.233   0.788  0.00  0.00     0.063 A 
ATOM     11  C5  <0> d          -1.309  -2.575  -1.371  0.00  0.00     0.213 A 
ATOM     12  N1  <0> d          -1.088  -2.013  -0.154  0.00  0.00    -0.308 N 
ATOM     13  C12 <0> d          -1.010  -2.783   0.957  0.00  0.00     0.261 A 
ATOM     14  O1  <0> d          -0.808  -2.293   2.053  0.00  0.00    -0.267 OA
ATOM     15  C10 <0> d          -1.128  -5.112   1.867  0.00  0.00     0.049 A 
BRANCH  12  16
ATOM     16  C4  <0> d          -0.926  -0.561  -0.044  0.00  0.00     0.137 C 
BRANCH  16  17
ATOM     17  C2  <0> d           0.552  -0.199  -0.204  0.00  0.00    -0.004 C 
ATOM     18  C1  <0> d           0.707   1.323  -0.213  0.00  0.00     0.011 C 
ATOM     19  C3  <0> d           1.350  -0.785   0.963  0.00  0.00     0.011 C 
ENDBRANCH  16  17
ENDBRANCH  12  16
ENDBRANCH   1   5
BRANCH   2  20
ATOM     20  C14 <0> d          -0.783  -9.598   3.675  0.00  0.00     0.141 C 
BRANCH  20  21
ATOM     21  C15 <0> d          -0.157 -10.892   3.225  0.00  0.00    -0.047 A 
ATOM     22  C20 <0> d           1.198 -11.102   3.406  0.00  0.00     0.047 A 
ATOM     23  C19 <0> d           1.770 -12.294   2.994  0.00  0.00     0.102 A 
ATOM     24  C18 <0> d           0.986 -13.270   2.395  0.00  0.00     0.102 A 
ATOM     25  O3  <0> d           3.105 -12.515   3.170  0.00  0.00    -0.348 OA
ATOM     26  C17 <0> d          -0.369 -13.055   2.211  0.00  0.00     0.040 A 
ATOM     27  O4  <0> d           1.560 -14.439   1.988  0.00  0.00    -0.348 OA
ATOM     28  C16 <0> d          -0.938 -11.864   2.627  0.00  0.00     0.010 A 
ATOM     29  C23 <0> d           2.024 -15.303   3.028  0.00  0.00     0.178 C 
ATOM     30  C22 <0> d           3.421 -14.903   3.477  0.00  0.00     0.053 C 
ATOM     31  C21 <0> d           3.451 -13.526   4.120  0.00  0.00     0.178 C 
ENDBRANCH  20  21
ENDBRANCH   2  20
TORSDOF 5
ENDMDL
MODEL ZINC65354536
REMARK  4 active torsions:
REMARK  status: ('A' for Active; 'I' for Inactive)
REMARK    1  A    between atoms: O1_2  and  C2_3 
REMARK    2  A    between atoms: C2_3  and  C3_5 
REMARK    3  A    between atoms: C6_8  and  C9_12 
REMARK    4  A    between atoms: C12_15  and  C15_19 
ROOT
ATOM      1  C3  <0> d           0.680  -2.086   1.091  0.00  0.00     0.078 A 
ATOM      2  C4  <0> d           0.100  -2.850   0.075  0.00  0.00     0.022 A 
ATOM      3  C5  <0> d           0.153  -4.214   0.127  0.00  0.00     0.013 A 
ATOM      4  C6  <0> d           0.788  -4.852   1.194  0.00  0.00    -0.020 A 
ATOM      5  C7  <0> d           1.370  -4.098   2.213  0.00  0.00     0.055 A 
ATOM      6  C8  <0> d           1.322  -2.720   2.162  0.00  0.00     0.133 A 
ATOM      7  F1  <0> d           1.889  -1.984   3.143  0.00  0.00    -0.205 F 
ENDROOT
BRANCH   4   8
ATOM      8  C9  <0> d           0.842  -6.332   1.245  0.00  0.00     0.013 A 
ATOM      9  C14 <0> d           2.060  -6.979   1.473  0.00  0.00     0.128 A 
ATOM     10  C13 <0> d           2.110  -8.356   1.525  0.00  0.00     0.061 A 
ATOM     11  F2  <0> d           3.187  -6.255   1.647  0.00  0.00    -0.205 F 
ATOM     12  C12 <0> d           0.944  -9.104   1.340  0.00  0.00     0.043 A 
ATOM     13  C11 <0> d          -0.273  -8.454   1.107  0.00  0.00     0.019 A 
ATOM     14  C10 <0> d          -0.322  -7.079   1.060  0.00  0.00     0.016 A 
BRANCH  12  15
ATOM     15  C15 <0> d           0.995 -10.576   1.390  0.00  0.00     0.209 C 
ATOM     16  O3  <0> d          -0.025 -11.230   1.228  0.00  0.00    -0.644 OA
ATOM     17  O4  <0> d           2.059 -11.144   1.594  0.00  0.00    -0.644 OA
ENDBRANCH  12  15
ENDBRANCH   4   8
BRANCH   1  18
ATOM     18  C2  <0> d           0.621  -0.613   1.033  0.00  0.00     0.296 C 
ATOM     19  O2  <0> d           1.129   0.051   1.914  0.00  0.00    -0.259 OA
BRANCH  18  20
ATOM     20  O1  <0> d           0.002  -0.004   0.002  0.00  0.00    -0.322 OA
ATOM     21  C1  <0> d          -0.017   1.425   0.010  0.00  0.00     0.213 C 
ENDBRANCH  18  20
ENDBRANCH   1  18
TORSDOF 4
ENDMDL
MODEL ZINC95509432
REMARK  5 active torsions:
REMARK  status: ('A' for Active; 'I' for Inactive)
REMARK    1  A    between atoms: C4_4  and  O1_7 
REMARK    2  A    between atoms: O1_7  and  C7_8 
REMARK    3  A    between atoms: C10_11  and  N2_14 
REMARK       I    between atoms: N2_14  and  C12_15 
REMARK    4  A    between atoms: C12_15  and  C13_17 
REMARK       I    between atoms: N3_22  and  C18_23 
REMARK    5  A    between atoms: C18_23  and  C19_25 
ROOT
ATOM      1  N2  <0> d           2.656  -5.760  -0.751  0.00  0.00    -0.324 N 
ATOM      2  C12 <0> d           1.910  -6.848  -0.474  0.00  0.00     0.245 C 
ATOM      3  O2  <0> d           1.131  -6.829   0.455  0.00  0.00    -0.271 OA
ATOM      4  H10 <0> d           3.323  -5.795  -1.454  0.00  0.00     0.169 HD
ENDROOT
BRANCH   1   5
ATOM      5  C10 <0> d           2.468  -4.578  -0.022  0.00  0.00     0.052 A 
ATOM      6  C9  <0> d           2.135  -4.628   1.330  0.00  0.00     0.035 A 
ATOM      7  C8  <0> d           1.959  -3.436   2.010  0.00  0.00     0.060 A 
ATOM      8  C7  <0> d           2.119  -2.237   1.326  0.00  0.00     0.169 A 
ATOM      9  N1  <0> d           2.431  -2.227   0.041  0.00  0.00    -0.235 NA
ATOM     10  C11 <0> d           2.611  -3.343  -0.638  0.00  0.00     0.149 A 
BRANCH   8  11
ATOM     11  O1  <0> d           1.949  -1.062   1.985  0.00  0.00    -0.292 OA
BRANCH  11  12
ATOM     12  C4  <0> d           2.007   0.088   1.263  0.00  0.00     0.077 A 
ATOM     13  C3  <0> d           1.018   0.375   0.333  0.00  0.00     0.037 A 
ATOM     14  C2  <0> d           1.079   1.545  -0.399  0.00  0.00     0.003 A 
ATOM     15  C1  <0> d           2.124   2.429  -0.206  0.00  0.00     0.000 A 
ATOM     16  C6  <0> d           3.111   2.146   0.720  0.00  0.00     0.003 A 
ATOM     17  C5  <0> d           3.055   0.977   1.455  0.00  0.00     0.037 A 
ENDBRANCH  11  12
ENDBRANCH   8  11
ENDBRANCH   1   5
BRANCH   2  18
ATOM     18  C13 <0> d           2.044  -8.088  -1.320  0.00  0.00     0.179 C 
ATOM     19  N3  <0> d           0.810  -8.293  -2.091  0.00  0.00    -0.334 N 
ATOM     20  C17 <0> d           0.663  -9.530  -2.872  0.00  0.00     0.127 C 
ATOM     21  C18 <0> d          -0.169  -7.367  -2.080  0.00  0.00     0.256 C 
ATOM     22  C16 <0> d           0.907 -10.730  -1.951  0.00  0.00     0.020 C 
ATOM     23  C15 <0> d           2.268 -10.575  -1.268  0.00  0.00     0.004 C 
ATOM     24  C14 <0> d           2.272  -9.304  -0.416  0.00  0.00     0.035 C 
ATOM     25  O3  <0> d           0.013  -6.297  -1.532  0.00  0.00    -0.267 OA
BRANCH  21  26
ATOM     26  C19 <0> d          -1.459  -7.651  -2.733  0.00  0.00     0.056 A 
ATOM     27  C22 <0> d          -2.086  -8.859  -2.831  0.00  0.00     0.158 A 
ATOM     28  O4  <0> d          -3.232  -8.687  -3.496  0.00  0.00    -0.334 OA
ATOM     29  C21 <0> d          -3.390  -7.403  -3.854  0.00  0.00     0.142 A 
ATOM     30  C20 <0> d          -2.337  -6.694  -3.422  0.00  0.00     0.043 A 
ENDBRANCH  21  26
ENDBRANCH   2  18
TORSDOF 5
ENDMDL
MODEL ZINC95524283
REMARK  6 active torsions:
REMARK  status: ('A' for Active; 'I' for Inactive)
REMARK    1  A    between atoms: C8_8  and  C9_11 
REMARK    2  A    between atoms: C13_15  and  N2_17 
REMARK       I    between atoms: N2_17  and  C15_18 
REMARK    3  A    between atoms: C15_18  and  C16_20 
REMARK    4  A    between atoms: N3_23  and  C21_26 
REMARK    5  A    between atoms: C21_26  and  C22_27 
REMARK    6  A    between atoms: C22_27  and  C23_28 
ROOT
ATOM      1  C9  <0> d           3.768  -3.636  -0.784  0.00  0.00    -0.007 A 
ATOM      2  C10 <0> d           3.133  -4.624  -0.029  0.00  0.00     0.014 A 
ATOM      3  C11 <0> d           3.883  -5.526   0.698  0.00  0.00     0.003 A 
ATOM      4  C12 <0> d           5.263  -5.455   0.681  0.00  0.00     0.029 A 
ATOM      5  C13 <0> d           5.905  -4.475  -0.067  0.00  0.00     0.035 A 
ATOM      6  C14 <0> d           5.160  -3.569  -0.805  0.00  0.00     0.043 A 
ENDROOT
BRANCH   5   7
ATOM      7  N2  <0> d           7.303  -4.408  -0.080  0.00  0.00    -0.327 N 
ATOM      8  C15 <0> d           8.033  -5.537   0.009  0.00  0.00     0.226 C 
ATOM      9  O1  <0> d           7.482  -6.618   0.005  0.00  0.00    -0.273 OA
ATOM     10  H11 <0> d           7.746  -3.548  -0.153  0.00  0.00     0.169 HD
BRANCH   8  11
ATOM     11  C16 <0> d           9.534  -5.458   0.115  0.00  0.00     0.081 C 
ATOM     12  C20 <0> d          10.117  -6.871   0.203  0.00  0.00     0.042 C 
ATOM     13  C19 <0> d          11.644  -6.786   0.230  0.00  0.00     0.235 C 
ATOM     14  N3  <0> d          12.123  -6.133  -0.994  0.00  0.00    -0.070 N 
ATOM     15  C18 <0> d          11.627  -4.753  -1.049  0.00  0.00     0.235 C 
ATOM     16  H25 <0> d          11.789  -6.642  -1.799  0.00  0.00     0.279 HD
ATOM     17  C17 <0> d          10.098  -4.760  -1.126  0.00  0.00     0.042 C 
BRANCH  14  18
ATOM     18  C21 <0> d          13.592  -6.124  -1.000  0.00  0.00     0.245 C 
BRANCH  18  19
ATOM     19  C22 <0> d          14.111  -7.561  -1.068  0.00  0.00     0.141 C 
BRANCH  19  20
ATOM     20  C23 <0> d          15.618  -7.552  -1.074  0.00  0.00     0.174 C 
ATOM     21  O2  <0> d          16.221  -6.493  -1.028  0.00  0.00    -0.648 OA
ATOM     22  O3  <0> d          16.234  -8.603  -1.125  0.00  0.00    -0.648 OA
ENDBRANCH  19  20
ENDBRANCH  18  19
ENDBRANCH  14  18
ENDBRANCH   8  11
ENDBRANCH   5   7
BRANCH   1  23
ATOM     23  C8  <0> d           2.966  -2.668  -1.564  0.00  0.00     0.043 A 
ATOM     24  C7  <0> d           1.611  -2.639  -1.618  0.00  0.00     0.044 A 
ATOM     25  C5  <0> d           1.244  -1.531  -2.498  0.00  0.00    -0.007 A 
ATOM     26  C4  <0> d           2.453  -0.950  -2.927  0.00  0.00     0.043 A 
ATOM     27  C6  <0> d           0.025  -1.008  -2.938  0.00  0.00     0.014 A 
ATOM     28  C3  <0> d           2.416   0.143  -3.787  0.00  0.00     0.030 A 
ATOM     29  N1  <0> d           3.480  -1.659  -2.345  0.00  0.00    -0.355 N 
ATOM     30  C2  <0> d           1.203   0.642  -4.208  0.00  0.00     0.002 A 
ATOM     31  C1  <0> d           0.013   0.066  -3.783  0.00  0.00     0.001 A 
ATOM     32  H1  <0> d           4.425  -1.476  -2.469  0.00  0.00     0.166 HD
ENDBRANCH   1  23
TORSDOF 6
ENDMDL
MODEL ZINC06001516
REMARK  7 active torsions:
REMARK  status: ('A' for Active; 'I' for Inactive)
REMARK    1  A    between atoms: N1_2  and  C2_3 
REMARK    2  A    between atoms: N1_2  and  C11_15 
REMARK    3  A    between atoms: C2_3  and  C3_4 
REMARK    4  A    between atoms: C3_4  and  C4_5 
REMARK    5  A    between atoms: C3_4  and  O2_14 
REMARK    6  A    between atoms: C4_5  and  O1_6 
REMARK    7  A    between atoms: O1_6  and  C5_7 
ROOT
ATOM      1  C3  <0> d          -2.078  -0.110  -1.286  0.00  0.00     0.168 C 
ENDROOT
BRANCH   1   2
ATOM      2  C2  <0> d          -1.376  -0.512   0.012  0.00  0.00     0.268 C 
BRANCH   2   3
ATOM      3  N1  <0> d           0.002  -0.004   0.002  0.00  0.00    -0.068 N 
ATOM      4  C1  <0> d          -0.018   1.465   0.010  0.00  0.00     0.270 C 
ATOM      5  H25 <0> d           0.474  -0.330  -0.828  0.00  0.00     0.280 HD
BRANCH   3   6
ATOM      6  C11 <0> d           0.713  -0.491   1.192  0.00  0.00     0.188 C 
ATOM      7  C16 <0> d           0.733  -2.021   1.184  0.00  0.00     0.033 C 
ATOM      8  C15 <0> d           1.473  -2.527   2.423  0.00  0.00     0.002 C 
ATOM      9  C14 <0> d           2.909  -1.998   2.412  0.00  0.00     0.000 C 
ATOM     10  C13 <0> d           2.888  -0.468   2.421  0.00  0.00     0.002 C 
ATOM     11  C12 <0> d           2.148   0.039   1.181  0.00  0.00     0.033 C 
ENDBRANCH   3   6
ENDBRANCH   2   3
ENDBRANCH   1   2
BRANCH   1  12
ATOM     12  C4  <0> d          -3.548  -0.531  -1.223  0.00  0.00     0.209 C 
BRANCH  12  13
ATOM     13  O1  <0> d          -4.230  -0.053  -2.384  0.00  0.00    -0.349 OA
BRANCH  13  14
ATOM     14  C5  <0> d          -5.554  -0.343  -2.484  0.00  0.00     0.069 A 
ATOM     15  C10 <0> d          -6.279   0.090  -3.585  0.00  0.00     0.038 A 
ATOM     16  C9  <0> d          -7.623  -0.211  -3.689  0.00  0.00     0.026 A 
ATOM     17  C8  <0> d          -8.250  -0.933  -2.689  0.00  0.00     0.034 A 
ATOM     18  C7  <0> d          -7.530  -1.361  -1.587  0.00  0.00     0.026 A 
ATOM     19 Cl1  <0> d          -9.941  -1.304  -2.817  0.00  0.00    -0.084 Cl
ATOM     20  C6  <0> d          -6.185  -1.067  -1.483  0.00  0.00     0.038 A 
ENDBRANCH  13  14
ENDBRANCH  12  13
ENDBRANCH   1  12
BRANCH   1  21
ATOM     21  O2  <0> d          -1.444  -0.758  -2.391  0.00  0.00    -0.392 OA
ATOM     22  H13 <0> d          -1.463  -1.724  -2.344  0.00  0.00     0.210 HD
ENDBRANCH   1  21
TORSDOF 7
ENDMDL
MODEL ZINC62390388
REMARK  4 active torsions:
REMARK  status: ('A' for Active; 'I' for Inactive)
REMARK    1  A    between atoms: N1_4  and  C7_9 
REMARK    2  A    between atoms: C7_9  and  C8_10 
REMARK    3  A    between atoms: C11_14  and  O3_23 
REMARK    4  A    between atoms: N2_16  and  C13_17 
ROOT
ATOM      1  C8  <0> d           4.176   0.223  -2.490  0.00  0.00     0.044 A 
ATOM      2  C9  <0> d           5.303  -0.521  -2.422  0.00  0.00     0.084 A 
ATOM      3  C10 <0> d           6.560   0.122  -2.467  0.00  0.00     0.208 A 
ATOM      4  O2  <0> d           7.595  -0.527  -2.408  0.00  0.00    -0.285 OA
ATOM      5  C11 <0> d           6.598   1.535  -2.581  0.00  0.00     0.131 A 
ATOM      6  C12 <0> d           5.433   2.223  -2.644  0.00  0.00     0.132 A 
ATOM      7  N2  <0> d           4.241   1.571  -2.604  0.00  0.00    -0.351 N 
ENDROOT
BRANCH   1   8
ATOM      8  C7  <0> d           2.832  -0.456  -2.443  0.00  0.00     0.329 C 
BRANCH   8   9
ATOM      9  N1  <0> d           2.120  -0.050  -1.224  0.00  0.00     0.099 N 
ATOM     10  C3  <0> d           0.720  -0.499  -1.256  0.00  0.00     0.304 C 
ATOM     11  C2  <0> d           0.002  -0.004   0.002  0.00  0.00     0.146 C 
ATOM     12  C1  <0> d          -0.019   1.526   0.010  0.00  0.00     0.041 C 
ATOM     13  O1  <0> d           0.695  -0.479   1.159  0.00  0.00    -0.378 OA
ATOM     14  C5  <0> d           2.062  -0.059   1.223  0.00  0.00     0.146 C 
ATOM     15  C4  <0> d           2.801  -0.554  -0.023  0.00  0.00     0.304 C 
ATOM     16  C6  <0> d           2.719  -0.646   2.474  0.00  0.00     0.041 C 
ENDBRANCH   8   9
ENDBRANCH   1   8
BRANCH   7  17
ATOM     17  C13 <0> d           2.999   2.345  -2.681  0.00  0.00     0.089 C 
ATOM     18  C18 <0> d           2.939   3.329  -1.511  0.00  0.00     0.026 C 
ATOM     19  C17 <0> d           1.642   4.137  -1.591  0.00  0.00     0.002 C 
ATOM     20  C16 <0> d           1.602   4.909  -2.911  0.00  0.00     0.000 C 
ATOM     21  C15 <0> d           1.663   3.924  -4.081  0.00  0.00     0.002 C 
ATOM     22  C14 <0> d           2.960   3.117  -4.001  0.00  0.00     0.026 C 
ENDBRANCH   7  17
BRANCH   5  23
ATOM     23  O3  <0> d           7.789   2.191  -2.626  0.00  0.00    -0.356 OA
ATOM     24  H28 <0> d           8.560   1.610  -2.574  0.00  0.00     0.218 HD
ENDBRANCH   5  23
TORSDOF 4
ENDMDL
MODEL ZINC95711260
REMARK  2 active torsions:
REMARK  status: ('A' for Active; 'I' for Inactive)
REMARK    1  A    between atoms: C2_2  and  C3_3 
REMARK    2  A    between atoms: C8_8  and  O1_9 
ROOT
ATOM      1  C3  <0> d          -1.412  -0.526   0.013  0.00  0.00    -0.025 A 
ATOM      2  C4  <0> d          -2.015  -0.864   1.209  0.00  0.00     0.011 A 
ATOM      3  C5  <0> d          -3.311  -1.343   1.220  0.00  0.00     0.020 A 
ATOM      4  C6  <0> d          -4.009  -1.485   0.033  0.00  0.00     0.013 A 
ATOM      5  C7  <0> d          -3.410  -1.148  -1.166  0.00  0.00     0.056 A 
ATOM      6  C8  <0> d          -2.110  -0.661  -1.178  0.00  0.00     0.073 A 
ATOM      7 Br1  <0> d          -5.782  -2.140   0.052  0.00  0.00    -0.051 Br
ENDROOT
BRANCH   1   8
ATOM      8  C2  <0> d           0.002  -0.004   0.002  0.00  0.00     0.037 C 
ATOM      9  C1  <0> d          -0.019   1.526   0.010  0.00  0.00     0.010 C 
ENDBRANCH   1   8
BRANCH   6  10
ATOM     10  O1  <0> d          -1.521  -0.324  -2.355  0.00  0.00    -0.360 OA
ATOM     11  H9  <0> d          -1.047  -1.051  -2.780  0.00  0.00     0.217 HD
ENDBRANCH   6  10
TORSDOF 2
ENDMDL
MODEL ZINC09849345
REMARK  4 active torsions:
REMARK  status: ('A' for Active; 'I' for Inactive)
REMARK    1  A    between atoms: C3_3  and  C10_12 
REMARK    2  A    between atoms: C10_12  and  C11_14 
REMARK       I    between atoms: C11_14  and  N2_16 
REMARK    3  A    between atoms: N3_19  and  C16_22 
REMARK    4  A    between atoms: N6_28  and  C20_31 
ROOT
ATOM      1  C11 <0> d          -6.372   1.928  -1.554  0.00  0.00     0.294 C 
ATOM      2  O2  <0> d          -7.175   2.835  -1.624  0.00  0.00    -0.264 OA
ATOM      3  N2  <0> d          -5.461   1.909  -0.561  0.00  0.00    -0.343 N 
ATOM      4  C12 <0> d          -5.361   3.023   0.393  0.00  0.00     0.141 C 
ATOM      5  C13 <0> d          -3.899   3.477   0.460  0.00  0.00     0.117 C 
ATOM      6  N3  <0> d          -3.044   2.322   0.762  0.00  0.00    -0.263 NA
ATOM      7  C14 <0> d          -3.110   1.315  -0.306  0.00  0.00     0.117 C 
ATOM      8  C15 <0> d          -4.540   0.773  -0.404  0.00  0.00     0.141 C 
ENDROOT
BRANCH   6   9
ATOM      9  C16 <0> d          -1.740   2.717   0.990  0.00  0.00     0.141 A 
ATOM     10  N5  <0> d          -1.396   3.997   0.919  0.00  0.00    -0.227 NA
ATOM     11  C19 <0> d          -0.153   4.387   1.142  0.00  0.00     0.237 A 
ATOM     12  N4  <0> d           0.810   3.541   1.438  0.00  0.00    -0.220 NA
ATOM     13  C18 <0> d           0.564   2.237   1.527  0.00  0.00     0.188 A 
ATOM     14  C17 <0> d          -0.743   1.769   1.300  0.00  0.00     0.168 A 
ATOM     15  N6  <0> d           1.318   1.129   1.808  0.00  0.00    -0.195 N 
ATOM     16  N8  <0> d          -0.733   0.433   1.447  0.00  0.00    -0.124 NA
ATOM     17  N7  <0> d           0.452   0.027   1.743  0.00  0.00    -0.058 NA
BRANCH  15  18
ATOM     18  C20 <0> d           2.688   1.101   2.102  0.00  0.00     0.065 A 
ATOM     19  C25 <0> d           3.552   1.990   1.476  0.00  0.00     0.074 A 
ATOM     20  C24 <0> d           4.903   1.963   1.772  0.00  0.00     0.118 A 
ATOM     21  C23 <0> d           5.394   1.044   2.685  0.00  0.00     0.042 A 
ATOM     22  F1  <0> d           5.744   2.830   1.168  0.00  0.00    -0.206 F 
ATOM     23  C22 <0> d           4.535   0.155   3.305  0.00  0.00     0.005 A 
ATOM     24  C21 <0> d           3.185   0.181   3.016  0.00  0.00     0.032 A 
ENDBRANCH  15  18
ENDBRANCH   6   9
BRANCH   1  25
ATOM     25  C10 <0> d          -6.394   0.833  -2.568  0.00  0.00     0.252 C 
ATOM     26  O1  <0> d          -5.643   0.874  -3.522  0.00  0.00    -0.281 OA
BRANCH  25  27
ATOM     27  C3  <0> d          -7.319  -0.288  -2.413  0.00  0.00     0.054 A 
ATOM     28  C2  <0> d          -8.650  -0.324  -2.782  0.00  0.00     0.021 A 
ATOM     29  C1  <0> d          -9.404   0.811  -3.425  0.00  0.00     0.069 C 
ATOM     30  N1  <0> d          -9.169  -1.529  -2.483  0.00  0.00    -0.358 N 
ATOM     31  C9  <0> d          -8.216  -2.339  -1.897  0.00  0.00     0.043 A 
ATOM     32  H1  <0> d         -10.087  -1.791  -2.652  0.00  0.00     0.166 HD
ATOM     33  C4  <0> d          -7.020  -1.609  -1.824  0.00  0.00     0.007 A 
ATOM     34  C8  <0> d          -8.248  -3.643  -1.411  0.00  0.00     0.030 A 
ATOM     35  C5  <0> d          -5.881  -2.185  -1.272  0.00  0.00     0.015 A 
ATOM     36  C6  <0> d          -5.932  -3.478  -0.795  0.00  0.00     0.001 A 
ATOM     37  C7  <0> d          -7.113  -4.202  -0.866  0.00  0.00     0.002 A 
ENDBRANCH  25  27
ENDBRANCH   1  25
TORSDOF 4
ENDMDL
MODEL ZINC95766390
REMARK  1 active torsions:
REMARK  status: ('A' for Active; 'I' for Inactive)
REMARK    1  A    between atoms: C4_4  and  C7_9 
ROOT
ATOM      1  C1  <0> d          -0.018   1.503   0.001  0.00  0.00     0.048 C 
ATOM      2  C2  <0> d           0.002  -0.004  -0.001  0.00  0.00    -0.054 A 
ATOM      3  C3  <0> d          -1.201  -0.729  -0.001  0.00  0.00     0.040 A 
ATOM      4  C4  <0> d          -1.170  -2.104  -0.003  0.00  0.00     0.081 A 
ATOM      5  N1  <0> d           0.029  -2.769  -0.004  0.00  0.00    -0.321 N 
ATOM      6  C5  <0> d           1.191  -2.088  -0.004  0.00  0.00     0.246 A 
ATOM      7  C6  <0> d           1.187  -0.674  -0.009  0.00  0.00     0.081 A 
ATOM      8  O1  <0> d           2.250  -2.692  -0.006  0.00  0.00    -0.268 OA
ATOM      9  H9  <0> d           0.041  -3.740  -0.005  0.00  0.00     0.169 HD
ENDROOT
BRANCH   4  10
ATOM     10  C7  <0> d          -2.429  -2.864  -0.002  0.00  0.00     0.172 C 
ATOM     11  O2  <0> d          -2.408  -4.073  -0.101  0.00  0.00    -0.291 OA
ATOM     12  C8  <0> d          -3.746  -2.142   0.122  0.00  0.00     0.098 C 
ENDBRANCH   4  10
TORSDOF 1
ENDMDL
MODEL ZINC09871981
REMARK  5 active torsions:
REMARK  status: ('A' for Active; 'I' for Inactive)
REMARK    1  A    between atoms: C2_2  and  O1_3 
REMARK    2  A    between atoms: O1_3  and  C3_4 
REMARK    3  A    between atoms: C6_7  and  C9_10 
REMARK    4  A    between atoms: C9_10  and  N1_11 
REMARK       I    between atoms: N2_21  and  C21_29 
REMARK    5  A    between atoms: C18_23  and  N4_25 
REMARK       I    between atoms: N4_25  and  C19_26 
ROOT
ATOM      1  N1  <0> d          -1.701  -1.341  -0.711  0.00  0.00    -0.310 N 
ATOM      2  C10 <0> d          -1.717  -1.370   0.687  0.00  0.00     0.048 A 
ATOM      3  C11 <0> d          -2.554  -2.043   1.573  0.00  0.00     0.032 A 
ATOM      4  C12 <0> d          -2.373  -1.916   2.934  0.00  0.00     0.026 A 
ATOM      5  C13 <0> d          -1.358  -1.116   3.431  0.00  0.00     0.034 A 
ATOM      6  C14 <0> d          -0.521  -0.444   2.557  0.00  0.00     0.037 A 
ATOM      7  C15 <0> d          -0.697  -0.569   1.197  0.00  0.00     0.021 A 
ATOM      8  C16 <0> d           0.002  -0.004   0.002  0.00  0.00     0.224 A 
ATOM      9  C17 <0> d          -0.715  -0.554  -1.192  0.00  0.00     0.271 A 
ATOM     10  O2  <0> d          -0.460  -0.337  -2.357  0.00  0.00    -0.269 OA
ATOM     11  N2  <0> d           1.441  -0.264  -0.012  0.00  0.00    -0.201 N 
ATOM     12  N3  <0> d           2.236   0.868  -0.014  0.00  0.00    -0.141 NA
ATOM     13  C18 <0> d           1.747   2.075  -0.004  0.00  0.00     0.191 A 
ATOM     14  S1  <0> d          -0.023   1.821   0.012  0.00  0.00    -0.042 SA
ATOM     15  C21 <0> d           1.953  -1.510  -0.023  0.00  0.00     0.238 C 
ATOM     16  O4  <0> d           1.212  -2.471  -0.021  0.00  0.00    -0.272 OA
ATOM     17  C22 <0> d           3.447  -1.710  -0.038  0.00  0.00     0.119 C 
ATOM     18 Cl1  <0> d          -1.136  -0.957   5.145  0.00  0.00    -0.084 Cl
ENDROOT
BRANCH  13  19
ATOM     19  N4  <0> d           2.439   3.278  -0.004  0.00  0.00    -0.305 N 
ATOM     20  C19 <0> d           3.787   3.280  -0.017  0.00  0.00     0.219 C 
ATOM     21  O3  <0> d           4.395   2.231  -0.028  0.00  0.00    -0.274 OA
ATOM     22  C20 <0> d           4.539   4.587  -0.017  0.00  0.00     0.117 C 
ATOM     23  H15 <0> d           1.953   4.117   0.005  0.00  0.00     0.171 HD
ENDBRANCH  13  19
BRANCH   1  24
ATOM     24  C9  <0> d          -2.645  -2.077  -1.556  0.00  0.00     0.170 C 
BRANCH  24  25
ATOM     25  C6  <0> d          -2.087  -3.444  -1.858  0.00  0.00    -0.040 A 
ATOM     26  C5  <0> d          -2.367  -4.506  -1.018  0.00  0.00     0.011 A 
ATOM     27  C4  <0> d          -1.858  -5.760  -1.294  0.00  0.00     0.037 A 
ATOM     28  C3  <0> d          -1.063  -5.953  -2.414  0.00  0.00     0.068 A 
ATOM     29  C8  <0> d          -0.783  -4.886  -3.256  0.00  0.00     0.037 A 
ATOM     30  C7  <0> d          -1.300  -3.636  -2.979  0.00  0.00     0.011 A 
BRANCH  28  31
ATOM     31  O1  <0> d          -0.561  -7.186  -2.688  0.00  0.00    -0.352 OA
BRANCH  31  32
ATOM     32  C2  <0> d           0.249  -7.311  -3.859  0.00  0.00     0.171 C 
ATOM     33  C1  <0> d           0.720  -8.760  -4.000  0.00  0.00     0.034 C 
ENDBRANCH  31  32
ENDBRANCH  28  31
ENDBRANCH  24  25
ENDBRANCH   1  24
TORSDOF 5
ENDMDL
MODEL ZINC95936422
REMARK  5 active torsions:
REMARK  status: ('A' for Active; 'I' for Inactive)
REMARK    1  A    between atoms: C4_4  and  C6_8 
REMARK    2  A    between atoms: C6_8  and  C7_9 
REMARK    3  A    between atoms: C7_9  and  C8_10 
REMARK    4  A    between atoms: C8_10  and  C9_11 
REMARK    5  A    between atoms: C9_11  and  C10_12 
ROOT
ATOM      1  C1  <0> d          -0.019   1.526   0.010  0.00  0.00     0.040 C 
ATOM      2  C2  <0> d           0.002  -0.004   0.002  0.00  0.00     0.128 C 
ATOM      3  C3  <0> d           0.779  -0.537  -1.232  0.00  0.00     0.046 C 
ATOM      4  C4  <0> d           1.268  -1.907  -0.695  0.00  0.00     0.088 C 
ATOM      5  C5  <0> d           1.167  -1.766   0.811  0.00  0.00     0.263 C 
ATOM      6  O1  <0> d           1.398  -2.639   1.615  0.00  0.00    -0.265 OA
ATOM      7  O2  <0> d           0.773  -0.511   1.111  0.00  0.00    -0.316 OA
ENDROOT
BRANCH   4   8
ATOM      8  C6  <0> d           2.716  -2.163  -1.118  0.00  0.00     0.015 C 
BRANCH   8   9
ATOM      9  C7  <0> d           3.132  -3.570  -0.684  0.00  0.00     0.001 C 
BRANCH   9  10
ATOM     10  C8  <0> d           4.580  -3.826  -1.106  0.00  0.00     0.004 C 
BRANCH  10  11
ATOM     11  C9  <0> d           4.997  -5.233  -0.673  0.00  0.00     0.026 C 
BRANCH  11  12
ATOM     12  C10 <0> d           6.423  -5.485  -1.089  0.00  0.00    -0.037 C 
ATOM     13  C11 <0> d           7.311  -5.852  -0.197  0.00  0.00     0.007 C 
ENDBRANCH  11  12
ENDBRANCH  10  11
ENDBRANCH   9  10
ENDBRANCH   8   9
ENDBRANCH   4   8
TORSDOF 5
ENDMDL
MODEL ZINC95940466
REMARK  3 active torsions:
REMARK  status: ('A' for Active; 'I' for Inactive)
REMARK    1  A    between atoms: C3_3  and  N2_11 
REMARK    2  A    between atoms: C6_6  and  C7_7 
REMARK       I    between atoms: C7_7  and  N1_9 
REMARK       I    between atoms: N2_11  and  C8_12 
REMARK    3  A    between atoms: C8_12  and  C9_14 
ROOT
ATOM      1  N2  <0> d           3.578   2.136  -0.022  0.00  0.00    -0.320 N 
ATOM      2  C8  <0> d           3.557   3.481  -0.116  0.00  0.00     0.259 C 
ATOM      3  O2  <0> d           2.497   4.075  -0.102  0.00  0.00    -0.267 OA
ATOM      4  H6  <0> d           4.424   1.667   0.049  0.00  0.00     0.169 HD
ENDROOT
BRANCH   1   5
ATOM      5  C3  <0> d           2.381   1.419  -0.025  0.00  0.00     0.074 A 
ATOM      6  C2  <0> d           1.249   1.961  -0.622  0.00  0.00     0.034 A 
ATOM      7  C1  <0> d           0.066   1.256  -0.627  0.00  0.00     0.019 A 
ATOM      8  C6  <0> d           0.004  -0.007  -0.032  0.00  0.00     0.034 A 
ATOM      9  C5  <0> d           1.143  -0.551   0.568  0.00  0.00     0.061 A 
ATOM     10  C4  <0> d           2.324   0.160   0.570  0.00  0.00     0.144 A 
ATOM     11  F1  <0> d           3.427  -0.365   1.148  0.00  0.00    -0.204 F 
BRANCH   8  12
ATOM     12  C7  <0> d          -1.263  -0.764  -0.036  0.00  0.00     0.249 C 
ATOM     13  O1  <0> d          -2.253  -0.290  -0.558  0.00  0.00    -0.268 OA
ATOM     14  N1  <0> d          -1.322  -1.982   0.538  0.00  0.00    -0.366 N 
ATOM     15  H4  <0> d          -0.531  -2.361   0.955  0.00  0.00     0.159 HD
ATOM     16  H5  <0> d          -2.154  -2.480   0.536  0.00  0.00     0.159 HD
ENDBRANCH   8  12
ENDBRANCH   1   5
BRANCH   2  17
ATOM     17  C9  <0> d           4.822   4.231  -0.236  0.00  0.00     0.072 A 
ATOM     18  C14 <0> d           4.805   5.626  -0.334  0.00  0.00     0.156 A 
ATOM     19  C13 <0> d           5.995   6.322  -0.440  0.00  0.00     0.112 A 
ATOM     20  F2  <0> d           3.629   6.292  -0.319  0.00  0.00    -0.203 F 
ATOM     21  C12 <0> d           7.200   5.639  -0.461  0.00  0.00     0.141 A 
ATOM     22 Cl1  <0> d           5.978   8.055  -0.554  0.00  0.00    -0.078 Cl
ATOM     23  C11 <0> d           7.221   4.255  -0.370  0.00  0.00     0.045 A 
ATOM     24  F3  <0> d           8.360   6.323  -0.570  0.00  0.00    -0.204 F 
ATOM     25  C10 <0> d           6.042   3.550  -0.257  0.00  0.00     0.023 A 
ENDBRANCH   2  17
TORSDOF 3
ENDMDL
MODEL ZINC67770863
REMARK  5 active torsions:
REMARK  status: ('A' for Active; 'I' for Inactive)
REMARK    1  A    between atoms: C2_2  and  C3_3 
REMARK    2  A    between atoms: C2_2  and  N1_6 
REMARK    3  A    between atoms: C3_3  and  O1_4 
REMARK       I    between atoms: N1_6  and  C5_7 
REMARK    4  A    between atoms: C5_7  and  C6_9 
REMARK    5  A    between atoms: C6_9  and  N2_10 
ROOT
ATOM      1  N2  <0> d          -0.240  -1.150  -4.711  0.00  0.00    -0.260 N 
ATOM      2  C7  <0> d          -0.393  -0.043  -5.507  0.00  0.00     0.067 A 
ATOM      3  C8  <0> d           0.329   1.127  -5.286  0.00  0.00     0.032 A 
ATOM      4  C9  <0> d           0.138   2.210  -6.115  0.00  0.00     0.002 A 
ATOM      5  C10 <0> d          -0.766   2.151  -7.168  0.00  0.00     0.001 A 
ATOM      6  C11 <0> d          -1.486   1.012  -7.404  0.00  0.00     0.018 A 
ATOM      7  C12 <0> d          -1.308  -0.095  -6.577  0.00  0.00     0.044 A 
ATOM      8  C13 <0> d          -2.048  -1.353  -6.773  0.00  0.00     0.203 A 
ATOM      9  O3  <0> d          -2.859  -1.486  -7.675  0.00  0.00    -0.286 OA
ATOM     10  C14 <0> d          -1.769  -2.404  -5.858  0.00  0.00     0.194 A 
ATOM     11  N3  <0> d          -0.895  -2.234  -4.910  0.00  0.00    -0.180 NA
ENDROOT
BRANCH   1  12
ATOM     12  C6  <0> d           0.712  -1.094  -3.598  0.00  0.00     0.254 C 
BRANCH  12  13
ATOM     13  C5  <0> d           0.006  -0.608  -2.358  0.00  0.00     0.237 C 
ATOM     14  N1  <0> d           0.688  -0.476  -1.203  0.00  0.00    -0.353 N 
ATOM     15  H10 <0> d           1.632  -0.695  -1.170  0.00  0.00     0.163 HD
ATOM     16  O2  <0> d          -1.175  -0.336  -2.400  0.00  0.00    -0.272 OA
BRANCH  14  17
ATOM     17  C2  <0> d           0.002  -0.004   0.002  0.00  0.00     0.104 C 
ATOM     18  C1  <0> d          -0.019   1.526   0.010  0.00  0.00     0.034 C 
BRANCH  17  19
ATOM     19  C3  <0> d           0.742  -0.511   1.242  0.00  0.00     0.191 C 
BRANCH  19  20
ATOM     20  O1  <0> d           2.044   0.076   1.292  0.00  0.00    -0.394 OA
ATOM     21  C4  <0> d           2.823  -0.333   2.418  0.00  0.00     0.201 C 
ENDBRANCH  19  20
ENDBRANCH  17  19
ENDBRANCH  14  17
ENDBRANCH  12  13
ENDBRANCH   1  12
TORSDOF 5
ENDMDL
MODEL ZINC71531229
REMARK  5 active torsions:
REMARK  status: ('A' for Active; 'I' for Inactive)
REMARK    1  A    between atoms: C5_5  and  O2_14 
REMARK    2  A    between atoms: C6_6  and  C8_8 
REMARK    3  A    between atoms: C8_8  and  C10_10 
REMARK    4  A    between atoms: C8_8  and  O1_12 
REMARK    5  A    between atoms: C10_10  and  N1_11 
ROOT
ATOM      1  C1  <0> d          -0.027   1.491  -0.174  0.00  0.00     0.048 C 
ATOM      2  C2  <0> d           0.033  -0.014  -0.154  0.00  0.00    -0.061 A 
ATOM      3  C3  <0> d           0.145  -0.716  -1.341  0.00  0.00     0.016 A 
ATOM      4  C4  <0> d           0.200  -2.096  -1.325  0.00  0.00    -0.028 A 
ATOM      5  C5  <0> d           0.142  -2.778  -0.118  0.00  0.00     0.083 A 
ATOM      6  C6  <0> d           0.030  -2.072   1.070  0.00  0.00     0.012 A 
ATOM      7  C7  <0> d          -0.019  -0.691   1.050  0.00  0.00     0.019 A 
ATOM      8  C13 <0> d           0.322  -2.861  -2.619  0.00  0.00     0.051 C 
ENDROOT
BRANCH   6   9
ATOM      9  C8  <0> d          -0.033  -2.810   2.383  0.00  0.00     0.110 C 
ATOM     10  C9  <0> d          -1.205  -3.793   2.360  0.00  0.00     0.053 C 
BRANCH   9  11
ATOM     11  C10 <0> d          -0.230  -1.808   3.522  0.00  0.00     0.272 C 
BRANCH  11  12
ATOM     12  N1  <0> d          -0.291  -2.527   4.801  0.00  0.00    -0.076 N 
ATOM     13  H11 <0> d          -1.064  -3.175   4.786  0.00  0.00     0.274 HD
ATOM     14  H12 <0> d           0.570  -3.033   4.944  0.00  0.00     0.274 HD
ATOM     15  H22 <0> d          -0.421  -1.866   5.553  0.00  0.00     0.274 HD
ENDBRANCH  11  12
ENDBRANCH   9  11
BRANCH   9  16
ATOM     16  O1  <0> d           1.187  -3.527   2.585  0.00  0.00    -0.379 OA
ATOM     17  C11 <0> d           2.358  -2.710   2.529  0.00  0.00     0.203 C 
ENDBRANCH   9  16
ENDBRANCH   6   9
BRANCH   5  18
ATOM     18  O2  <0> d           0.196  -4.136  -0.101  0.00  0.00    -0.355 OA
ATOM     19  C12 <0> d           1.492  -4.735  -0.150  0.00  0.00     0.210 C 
ENDBRANCH   5  18
TORSDOF 5
ENDMDL
MODEL ZINC95965838
REMARK  4 active torsions:
REMARK  status: ('A' for Active; 'I' for Inactive)
REMARK    1  A    between atoms: O1_2  and  C2_3 
REMARK    2  A    between atoms: C3_4  and  N3_9 
REMARK    3  A    between atoms: N4_17  and  C12_18 
REMARK    4  A    between atoms: C12_18  and  C13_19 
ROOT
ATOM      1  N3  <0> d          -0.082  -2.783  -0.001  0.00  0.00    -0.358 N 
ATOM      2  C6  <0> d           0.004  -4.262  -0.010  0.00  0.00     0.163 C 
ATOM      3  C7  <0> d           1.489  -4.596   0.060  0.00  0.00     0.271 C 
ATOM      4  C8  <0> d           2.129  -3.355  -0.630  0.00  0.00     0.174 C 
ATOM      5  C9  <0> d           1.299  -2.232  -0.012  0.00  0.00     0.159 C 
ATOM      6  O2  <0> d           3.511  -3.410  -0.335  0.00  0.00    -0.380 OA
ATOM      7  C10 <0> d           4.112  -4.570  -0.942  0.00  0.00     0.198 C 
ATOM      8  C11 <0> d           3.411  -5.857  -0.519  0.00  0.00     0.299 C 
ATOM      9  N4  <0> d           1.956  -5.768  -0.660  0.00  0.00     0.103 N 
ENDROOT
BRANCH   1  10
ATOM     10  C3  <0> d          -1.256  -2.036   0.009  0.00  0.00     0.179 A 
ATOM     11  C2  <0> d          -1.199  -0.637   0.010  0.00  0.00     0.211 A 
ATOM     12  N2  <0> d          -2.319   0.066   0.025  0.00  0.00    -0.232 NA
ATOM     13  C5  <0> d          -3.490  -0.553   0.028  0.00  0.00     0.138 A 
ATOM     14  C4  <0> d          -3.547  -1.931   0.027  0.00  0.00     0.138 A 
ATOM     15  N1  <0> d          -2.432  -2.645   0.017  0.00  0.00    -0.238 NA
BRANCH  11  16
ATOM     16  O1  <0> d           0.002  -0.004   0.002  0.00  0.00    -0.337 OA
ATOM     17  C1  <0> d          -0.017   1.425   0.010  0.00  0.00     0.212 C 
ENDBRANCH  11  16
ENDBRANCH   1  10
BRANCH   9  18
ATOM     18  C12 <0> d           1.295  -6.985  -0.170  0.00  0.00     0.311 C 
BRANCH  18  19
ATOM     19  C13 <0> d           1.614  -8.135  -1.091  0.00  0.00    -0.030 A 
ATOM     20  C18 <0> d           2.725  -8.922  -0.855  0.00  0.00     0.009 A 
ATOM     21  C17 <0> d           3.015  -9.979  -1.697  0.00  0.00     0.001 A 
ATOM     22  C16 <0> d           2.198 -10.244  -2.780  0.00  0.00     0.000 A 
ATOM     23  C15 <0> d           1.090  -9.454  -3.019  0.00  0.00     0.001 A 
ATOM     24  C14 <0> d           0.797  -8.399  -2.175  0.00  0.00     0.009 A 
ENDBRANCH  18  19
ENDBRANCH   9  18
TORSDOF 4
ENDMDL
MODEL ZINC95978709
REMARK  6 active torsions:
REMARK  status: ('A' for Active; 'I' for Inactive)
REMARK    1  A    between atoms: C2_2  and  N1_3 
REMARK    2  A    between atoms: N1_3  and  C3_4 
REMARK    3  A    between atoms: N1_3  and  C7_9 
REMARK    4  A    between atoms: C3_4  and  C4_5 
REMARK    5  A    between atoms: C4_5  and  O1_8 
REMARK    6  A    between atoms: C7_9  and  C9_11 
ROOT
ATOM      1  N1  <0> d          -1.258  -0.375   0.145  0.00  0.00    -0.059 N 
ATOM      2  H23 <0> d          -1.793  -0.011   0.919  0.00  0.00     0.280 HD
ENDROOT
BRANCH   1   3
ATOM      3  C2  <0> d           0.088   0.214   0.160  0.00  0.00     0.231 C 
ATOM      4  C1  <0> d          -0.023   1.739   0.122  0.00  0.00     0.034 C 
ENDBRANCH   1   3
BRANCH   1   5
ATOM      5  C3  <0> d          -1.928  -0.034  -1.117  0.00  0.00     0.272 C 
BRANCH   5   6
ATOM      6  C4  <0> d          -1.440  -0.970  -2.223  0.00  0.00     0.074 C 
ATOM      7  C5  <0> d          -2.003  -0.507  -3.569  0.00  0.00     0.047 C 
ATOM      8  C6  <0> d           0.089  -0.945  -2.275  0.00  0.00     0.047 C 
BRANCH   6   9
ATOM      9  O1  <0> d          -1.886  -2.300  -1.953  0.00  0.00    -0.389 OA
ATOM     10  H15 <0> d          -2.842  -2.419  -2.034  0.00  0.00     0.210 HD
ENDBRANCH   6   9
ENDBRANCH   5   6
ENDBRANCH   1   5
BRANCH   1  11
ATOM     11  C7  <0> d          -1.155  -1.835   0.265  0.00  0.00     0.235 C 
ATOM     12  C8  <0> d          -2.555  -2.435   0.414  0.00  0.00     0.047 C 
BRANCH  11  13
ATOM     13  C9  <0> d          -0.328  -2.183   1.476  0.00  0.00     0.064 A 
ATOM     14  N2  <0> d          -0.247  -1.328   2.477  0.00  0.00    -0.263 NA
ATOM     15  C13 <0> d           0.460  -1.592   3.559  0.00  0.00     0.117 A 
ATOM     16  C12 <0> d           1.156  -2.780   3.676  0.00  0.00     0.019 A 
ATOM     17  C11 <0> d           1.099  -3.701   2.641  0.00  0.00     0.003 A 
ATOM     18  C10 <0> d           0.341  -3.392   1.522  0.00  0.00     0.029 A 
ENDBRANCH  11  13
ENDBRANCH   1  11
TORSDOF 6
ENDMDL
MODEL ZINC95984848
REMARK  5 active torsions:
REMARK  status: ('A' for Active; 'I' for Inactive)
REMARK    1  A    between atoms: C3_3  and  C6_9 
REMARK       I    between atoms: N3_13  and  C10_14 
REMARK       I    between atoms: C10_14  and  N4_16 
REMARK    2  A    between atoms: N4_16  and  C11_17 
REMARK    3  A    between atoms: N5_20  and  C14_22 
REMARK    4  A    between atoms: C14_22  and  C15_23 
REMARK    5  A    between atoms: C15_23  and  C16_24 
ROOT
ATOM      1  C6  <0> d           0.488  -0.219  -2.446  0.00  0.00     0.126 C 
ATOM      2  C7  <0> d          -0.782  -0.361  -3.311  0.00  0.00     0.032 C 
ATOM      3  C8  <0> d          -0.214  -0.764  -4.697  0.00  0.00     0.022 C 
ATOM      4  C9  <0> d           0.990  -1.652  -4.295  0.00  0.00     0.128 C 
ATOM      5  N3  <0> d           1.549  -1.006  -3.089  0.00  0.00    -0.325 N 
ATOM      6  C10 <0> d           2.819  -1.119  -2.652  0.00  0.00     0.324 C 
ATOM      7  O1  <0> d           3.168  -0.539  -1.642  0.00  0.00    -0.247 OA
ATOM      8  N4  <0> d           3.702  -1.875  -3.334  0.00  0.00    -0.292 N 
ATOM      9  H15 <0> d           3.424  -2.338  -4.139  0.00  0.00     0.172 HD
ENDROOT
BRANCH   8  10
ATOM     10  C11 <0> d           5.023  -1.992  -2.879  0.00  0.00     0.152 A 
ATOM     11  N6  <0> d           5.975  -2.693  -3.448  0.00  0.00    -0.155 NA
ATOM     12  N5  <0> d           7.141  -2.545  -2.686  0.00  0.00    -0.279 N 
ATOM     13  C13 <0> d           6.858  -1.742  -1.639  0.00  0.00     0.116 A 
ATOM     14  C12 <0> d           5.557  -1.385  -1.731  0.00  0.00     0.071 A 
BRANCH  12  15
ATOM     15  C14 <0> d           8.440  -3.159  -2.973  0.00  0.00     0.151 C 
BRANCH  15  16
ATOM     16  C15 <0> d           8.270  -4.674  -3.107  0.00  0.00     0.026 C 
BRANCH  16  17
ATOM     17  C16 <0> d           9.627  -5.315  -3.406  0.00  0.00    -0.021 C 
ATOM     18  C17 <0> d          10.560  -5.116  -2.211  0.00  0.00     0.009 C 
ATOM     19  C18 <0> d           9.438  -6.811  -3.663  0.00  0.00     0.009 C 
ENDBRANCH  16  17
ENDBRANCH  15  16
ENDBRANCH  12  15
ENDBRANCH   8  10
BRANCH   1  20
ATOM     20  C3  <0> d           0.226  -0.748  -1.059  0.00  0.00     0.014 A 
ATOM     21  C2  <0> d           0.099  -0.006   0.065  0.00  0.00     0.034 A 
ATOM     22  C1  <0> d           0.195   1.495   0.155  0.00  0.00     0.070 C 
ATOM     23  N2  <0> d          -0.123  -0.853   1.093  0.00  0.00    -0.282 N 
ATOM     24  N1  <0> d          -0.142  -2.156   0.582  0.00  0.00    -0.179 NA
ATOM     25  H1  <0> d          -0.250  -0.602   2.022  0.00  0.00     0.189 HD
ATOM     26  C4  <0> d           0.071  -2.093  -0.708  0.00  0.00     0.061 A 
ATOM     27  C5  <0> d           0.136  -3.266  -1.651  0.00  0.00     0.073 C 
ENDBRANCH   1  20
TORSDOF 5
ENDMDL
MODEL ZINC96004659
REMARK  6 active torsions:
REMARK  status: ('A' for Active; 'I' for Inactive)
REMARK    1  A    between atoms: C3_5  and  C5_8 
REMARK    2  A    between atoms: C5_8  and  O1_9 
REMARK    3  A    between atoms: O1_9  and  C6_10 
REMARK    4  A    between atoms: C9_13  and  C12_17 
REMARK    5  A    between atoms: C12_17  and  C13_18 
REMARK    6  A    between atoms: C13_18  and  O3_20 
ROOT
ATOM      1  C6  <0> d           1.607  -4.851   2.421  0.00  0.00     0.107 A 
ATOM      2  C7  <0> d           0.520  -5.579   2.882  0.00  0.00     0.040 A 
ATOM      3  C8  <0> d           0.723  -6.725   3.628  0.00  0.00     0.010 A 
ATOM      4  C9  <0> d           2.008  -7.146   3.916  0.00  0.00    -0.046 A 
ATOM      5  C10 <0> d           3.094  -6.423   3.459  0.00  0.00     0.052 A 
ATOM      6  C11 <0> d           2.897  -5.279   2.706  0.00  0.00     0.150 A 
ATOM      7  F1  <0> d           3.958  -4.576   2.254  0.00  0.00    -0.203 F 
ENDROOT
BRANCH   1   8
ATOM      8  O1  <0> d           1.409  -3.724   1.687  0.00  0.00    -0.341 OA
BRANCH   8   9
ATOM      9  C5  <0> d           0.056  -3.344   1.433  0.00  0.00     0.256 C 
BRANCH   9  10
ATOM     10  C3  <0> d           0.034  -2.081   0.612  0.00  0.00     0.154 A 
ATOM     11  N2  <0> d           0.027  -2.006  -0.691  0.00  0.00    -0.133 NA
ATOM     12  N1  <0> d           0.008  -0.772  -1.054  0.00  0.00    -0.135 NA
ATOM     13  C2  <0> d           0.002  -0.004   0.002  0.00  0.00     0.126 A 
ATOM     14  C1  <0> d          -0.018   1.503   0.010  0.00  0.00     0.093 C 
ATOM     15  N3  <0> d           0.023  -0.813   1.089  0.00  0.00    -0.323 N 
ATOM     16  C4  <0> d           0.030  -0.400   2.494  0.00  0.00     0.159 C 
ENDBRANCH   9  10
ENDBRANCH   8   9
ENDBRANCH   1   8
BRANCH   4  17
ATOM     17  C12 <0> d           2.225  -8.396   4.730  0.00  0.00     0.149 C 
BRANCH  17  18
ATOM     18  C13 <0> d           2.311  -9.586   3.810  0.00  0.00     0.262 C 
ATOM     19  O2  <0> d           2.206  -9.435   2.616  0.00  0.00    -0.265 OA
BRANCH  18  20
ATOM     20  O3  <0> d           2.503 -10.814   4.317  0.00  0.00    -0.326 OA
ATOM     21  C14 <0> d           2.574 -11.896   3.387  0.00  0.00     0.213 C 
ENDBRANCH  18  20
ENDBRANCH  17  18
ENDBRANCH   4  17
TORSDOF 6
ENDMDL
MODEL ZINC12946507
REMARK  2 active torsions:
REMARK  status: ('A' for Active; 'I' for Inactive)
REMARK    1  A    between atoms: C9_9  and  N1_10 
REMARK       I    between atoms: N1_10  and  C10_11 
REMARK    2  A    between atoms: C10_11  and  C11_13 
ROOT
ATOM      1  N1  <0> d           4.147  -1.058   1.302  0.00  0.00    -0.350 N 
ATOM      2  C10 <0> d           5.090  -0.183   1.704  0.00  0.00     0.248 C 
ATOM      3  O1  <0> d           5.456   0.700   0.958  0.00  0.00    -0.271 OA
ATOM      4  H11 <0> d           3.854  -1.764   1.899  0.00  0.00     0.163 HD
ENDROOT
BRANCH   1   5
ATOM      5  C9  <0> d           3.564  -0.942  -0.037  0.00  0.00     0.118 C 
ATOM      6  C4  <0> d           2.396   0.021  -0.021  0.00  0.00    -0.029 A 
ATOM      7  C3  <0> d           2.376   1.406  -0.013  0.00  0.00     0.010 A 
ATOM      8  C5  <0> d           1.208  -0.685  -0.013  0.00  0.00    -0.050 A 
ATOM      9  C2  <0> d           1.172   2.083   0.002  0.00  0.00     0.001 A 
ATOM     10  C1  <0> d          -0.017   1.377   0.010  0.00  0.00     0.001 A 
ATOM     11  C6  <0> d           0.002  -0.004   0.002  0.00  0.00     0.007 A 
ATOM     12  C7  <0> d           1.496  -2.171  -0.025  0.00  0.00     0.041 C 
ATOM     13  C8  <0> d           2.966  -2.294  -0.480  0.00  0.00     0.034 C 
ENDBRANCH   1   5
BRANCH   2  14
ATOM     14  C11 <0> d           5.689  -0.302   3.082  0.00  0.00     0.225 C 
ATOM     15  O2  <0> d           6.651   0.742   3.311  0.00  0.00    -0.336 OA
ATOM     16  C18 <0> d           7.885   0.302   2.923  0.00  0.00     0.076 A 
ATOM     17  C13 <0> d           7.924  -1.083   2.843  0.00  0.00    -0.022 A 
ATOM     18  C17 <0> d           9.038   1.026   2.630  0.00  0.00     0.037 A 
ATOM     19  C12 <0> d           6.540  -1.589   3.200  0.00  0.00     0.083 C 
ATOM     20  C14 <0> d           9.084  -1.737   2.491  0.00  0.00     0.010 A 
ATOM     21  C15 <0> d          10.227  -1.011   2.204  0.00  0.00     0.001 A 
ATOM     22  C16 <0> d          10.198   0.370   2.273  0.00  0.00     0.003 A 
ENDBRANCH   2  14
TORSDOF 2
ENDMDL
MODEL ZINC96139367
REMARK  2 active torsions:
REMARK  status: ('A' for Active; 'I' for Inactive)
REMARK    1  A    between atoms: C5_5  and  C7_10 
REMARK       I    between atoms: C7_10  and  N2_12 
REMARK    2  A    between atoms: C14_19  and  C17_23 
ROOT
ATOM      1  C7  <0> d           0.058  -4.226   0.011  0.00  0.00     0.259 C 
ATOM      2  O2  <0> d          -0.031  -4.845  -1.032  0.00  0.00    -0.267 OA
ATOM      3  N2  <0> d           0.174  -4.886   1.179  0.00  0.00    -0.348 N 
ATOM      4  C8  <0> d           0.167  -4.158   2.455  0.00  0.00     0.128 C 
ATOM      5  C9  <0> d           1.420  -4.542   3.250  0.00  0.00     0.059 C 
ATOM      6  C10 <0> d           1.486  -6.063   3.386  0.00  0.00     0.131 C 
ATOM      7  C11 <0> d           1.562  -6.715   2.007  0.00  0.00     0.059 C 
ATOM      8  C12 <0> d           0.305  -6.350   1.202  0.00  0.00     0.128 C 
ATOM      9  C13 <0> d           0.234  -6.569   4.128  0.00  0.00     0.050 C 
ATOM     10  C14 <0> d           0.796  -7.704   5.026  0.00  0.00     0.047 C 
ATOM     11  C15 <0> d           2.189  -7.142   5.406  0.00  0.00     0.244 C 
ATOM     12  N3  <0> d           2.660  -6.445   4.189  0.00  0.00    -0.065 N 
ATOM     13  C16 <0> d           3.413  -5.242   4.568  0.00  0.00     0.270 C 
ATOM     14  H28 <0> d           3.252  -7.060   3.653  0.00  0.00     0.280 HD
ENDROOT
BRANCH  10  15
ATOM     15  C17 <0> d          -0.061  -7.898   6.250  0.00  0.00    -0.052 A 
ATOM     16  C22 <0> d          -0.668  -9.118   6.482  0.00  0.00     0.007 A 
ATOM     17  C21 <0> d          -1.450  -9.298   7.608  0.00  0.00     0.001 A 
ATOM     18  C20 <0> d          -1.633  -8.254   8.496  0.00  0.00     0.000 A 
ATOM     19  C19 <0> d          -1.031  -7.033   8.261  0.00  0.00     0.001 A 
ATOM     20  C18 <0> d          -0.245  -6.854   7.138  0.00  0.00     0.007 A 
ENDBRANCH  10  15
BRANCH   1  21
ATOM     21  C5  <0> d           0.039  -2.755  -0.004  0.00  0.00     0.100 A 
ATOM     22  C4  <0> d           1.212  -2.029   0.191  0.00  0.00     0.025 A 
ATOM     23  C3  <0> d           1.155  -0.635   0.170  0.00  0.00     0.026 A 
ATOM     24  C2  <0> d          -0.029  -0.005  -0.038  0.00  0.00     0.008 A 
ATOM     25  C1  <0> d          -0.071   1.501  -0.058  0.00  0.00     0.068 C 
ATOM     26  N1  <0> d          -1.174  -0.704  -0.223  0.00  0.00    -0.327 N 
ATOM     27  C6  <0> d          -1.174  -2.051  -0.217  0.00  0.00     0.261 A 
ATOM     28  H1  <0> d          -2.006  -0.227  -0.366  0.00  0.00     0.169 HD
ATOM     29  O1  <0> d          -2.214  -2.663  -0.390  0.00  0.00    -0.267 OA
ENDBRANCH   1  21
TORSDOF 2
ENDMDL
MODEL ZINC09934778
REMARK  8 active torsions:
REMARK  status: ('A' for Active; 'I' for Inactive)
REMARK    1  A    between atoms: C2_2  and  N1_3 
REMARK    2  A    between atoms: C5_7  and  C6_8 
REMARK    3  A    between atoms: C8_10  and  C14_18 
REMARK    4  A    between atoms: C9_11  and  O3_17 
REMARK    5  A    between atoms: C10_12  and  O2_14 
REMARK    6  A    between atoms: O2_14  and  C12_15 
REMARK    7  A    between atoms: C14_18  and  C15_19 
REMARK    8  A    between atoms: N2_23  and  C19_26 
ROOT
ATOM      1  N1  <0> d           5.565   4.087  -3.473  0.00  0.00    -0.290 N 
ATOM      2  C3  <0> d           5.056   3.308  -2.495  0.00  0.00     0.265 A 
ATOM      3  O1  <0> d           3.901   2.929  -2.536  0.00  0.00    -0.267 OA
ATOM      4  C4  <0> d           5.939   2.933  -1.373  0.00  0.00     0.101 A 
ATOM      5  C5  <0> d           5.488   2.143  -0.333  0.00  0.00     0.034 C 
ATOM      6  C17 <0> d           7.327   3.435  -1.414  0.00  0.00     0.270 A 
ATOM      7  O4  <0> d           8.116   3.165  -0.528  0.00  0.00    -0.266 OA
ATOM      8  N2  <0> d           7.696   4.201  -2.461  0.00  0.00    -0.254 N 
ATOM      9  C18 <0> d           6.838   4.506  -3.443  0.00  0.00     0.191 A 
ATOM     10  S1  <0> d           7.397   5.485  -4.732  0.00  0.00    -0.040 SA
ENDROOT
BRANCH   5  11
ATOM     11  C6  <0> d           4.060   1.857  -0.198  0.00  0.00    -0.032 A 
ATOM     12  C11 <0> d           3.623   0.543   0.031  0.00  0.00     0.051 A 
ATOM     13  C10 <0> d           2.275   0.280   0.156  0.00  0.00     0.103 A 
ATOM     14  C9  <0> d           1.349   1.319   0.056  0.00  0.00     0.105 A 
ATOM     15  C8  <0> d           1.778   2.621  -0.177  0.00  0.00    -0.018 A 
ATOM     16  C7  <0> d           3.121   2.895  -0.298  0.00  0.00     0.022 A 
BRANCH  13  17
ATOM     17  O2  <0> d           1.849  -0.992   0.378  0.00  0.00    -0.349 OA
BRANCH  17  18
ATOM     18  C12 <0> d           2.851  -2.006   0.470  0.00  0.00     0.171 C 
ATOM     19  C13 <0> d           2.185  -3.361   0.719  0.00  0.00     0.034 C 
ENDBRANCH  17  18
ENDBRANCH  13  17
BRANCH  14  20
ATOM     20  O3  <0> d           0.023   1.057   0.179  0.00  0.00    -0.357 OA
ATOM     21  H14 <0> d          -0.307   1.114   1.086  0.00  0.00     0.217 HD
ENDBRANCH  14  20
BRANCH  15  22
ATOM     22  C14 <0> d           0.771   3.736  -0.290  0.00  0.00     0.068 C 
BRANCH  22  23
ATOM     23  C15 <0> d           0.430   4.246   1.086  0.00  0.00    -0.032 C 
ATOM     24  C16 <0> d           0.563   5.520   1.364  0.00  0.00     0.007 C 
ENDBRANCH  22  23
ENDBRANCH  15  22
ENDBRANCH   5  11
BRANCH   1  25
ATOM     25  C2  <0> d           4.708   4.477  -4.595  0.00  0.00     0.130 C 
ATOM     26  C1  <0> d           4.816   3.432  -5.707  0.00  0.00     0.027 C 
ENDBRANCH   1  25
BRANCH   8  27
ATOM     27  C19 <0> d           9.008   4.689  -2.522  0.00  0.00     0.045 A 
ATOM     28  C24 <0> d           9.335   5.886  -1.899  0.00  0.00     0.032 A 
ATOM     29  C23 <0> d          10.629   6.365  -1.960  0.00  0.00     0.026 A 
ATOM     30  C22 <0> d          11.600   5.653  -2.643  0.00  0.00     0.034 A 
ATOM     31  C21 <0> d          11.276   4.460  -3.265  0.00  0.00     0.026 A 
ATOM     32 Cl1  <0> d          13.225   6.257  -2.718  0.00  0.00    -0.084 Cl
ATOM     33  C20 <0> d           9.985   3.974  -3.202  0.00  0.00     0.032 A 
ENDBRANCH   8  27
TORSDOF 8
ENDMDL
MODEL ZINC35993397
REMARK  7 active torsions:
REMARK  status: ('A' for Active; 'I' for Inactive)
REMARK    1  A    between atoms: C2_2  and  O1_3 
REMARK    2  A    between atoms: O1_3  and  C3_4 
REMARK    3  A    between atoms: C3_4  and  C4_6 
REMARK    4  A    between atoms: C5_7  and  C16_21 
REMARK    5  A    between atoms: C7_12  and  C8_13 
REMARK    6  A    between atoms: C16_21  and  N3_22 
REMARK       I    between atoms: N4_26  and  C22_29 
REMARK    7  A    between atoms: C22_29  and  C23_31 
ROOT
ATOM      1  C4  <0> d          -3.235  -2.389  -0.190  0.00  0.00     0.069 A 
ATOM      2  C5  <0> d          -3.508  -3.710  -0.255  0.00  0.00     0.058 A 
ATOM      3  N1  <0> d          -4.786  -4.157  -0.432  0.00  0.00    -0.305 N 
ATOM      4  C6  <0> d          -5.846  -3.349  -0.551  0.00  0.00     0.323 A 
ATOM      5  O3  <0> d          -6.947  -3.841  -0.706  0.00  0.00    -0.247 OA
ATOM      6  N2  <0> d          -5.733  -2.006  -0.506  0.00  0.00    -0.330 N 
ATOM      7  C7  <0> d          -4.395  -1.422  -0.312  0.00  0.00     0.161 A 
ATOM      8  C15 <0> d          -5.009  -5.604  -0.494  0.00  0.00     0.161 C 
ATOM      9  H7  <0> d          -6.515  -1.439  -0.595  0.00  0.00     0.165 HD
ENDROOT
BRANCH   2  10
ATOM     10  C16 <0> d          -2.384  -4.706  -0.133  0.00  0.00     0.330 C 
BRANCH  10  11
ATOM     11  N3  <0> d          -2.063  -4.910   1.286  0.00  0.00     0.095 N 
ATOM     12  C21 <0> d          -3.093  -5.625   1.941  0.00  0.00     0.292 C 
ATOM     13  C20 <0> d          -2.881  -5.574   3.474  0.00  0.00     0.156 C 
ATOM     14  N4  <0> d          -1.723  -6.367   3.832  0.00  0.00    -0.345 N 
ATOM     15  C19 <0> d          -0.360  -5.801   3.888  0.00  0.00     0.128 C 
ATOM     16  C22 <0> d          -1.895  -7.671   4.125  0.00  0.00     0.277 C 
ATOM     17  C18 <0> d          -0.099  -4.854   2.705  0.00  0.00     0.050 C 
ATOM     18  C17 <0> d          -0.708  -5.434   1.447  0.00  0.00     0.274 C 
ATOM     19  O4  <0> d          -0.957  -8.334   4.526  0.00  0.00    -0.265 OA
BRANCH  16  20
ATOM     20  C23 <0> d          -3.215  -8.291   3.961  0.00  0.00     0.142 A 
ATOM     21  O5  <0> d          -4.303  -7.707   3.417  0.00  0.00    -0.317 OA
ATOM     22  C26 <0> d          -5.325  -8.573   3.431  0.00  0.00     0.143 A 
ATOM     23  C25 <0> d          -4.908  -9.729   3.994  0.00  0.00     0.027 A 
ATOM     24  C24 <0> d          -3.558  -9.558   4.337  0.00  0.00     0.045 A 
ENDBRANCH  16  20
ENDBRANCH  10  11
ENDBRANCH   2  10
BRANCH   1  25
ATOM     25  C3  <0> d          -1.912  -1.924  -0.006  0.00  0.00     0.293 C 
ATOM     26  O2  <0> d          -0.987  -2.714   0.014  0.00  0.00    -0.259 OA
BRANCH  25  27
ATOM     27  O1  <0> d          -1.675  -0.604   0.145  0.00  0.00    -0.318 OA
BRANCH  27  28
ATOM     28  C2  <0> d          -0.308  -0.193   0.214  0.00  0.00     0.174 C 
ATOM     29  C1  <0> d          -0.236   1.335   0.260  0.00  0.00     0.034 C 
ENDBRANCH  27  28
ENDBRANCH  25  27
ENDBRANCH   1  25
BRANCH   7  30
ATOM     30  C8  <0> d          -4.119  -0.510  -1.479  0.00  0.00    -0.025 A 
ATOM     31  C13 <0> d          -4.775   0.702  -1.580  0.00  0.00    -0.053 A 
ATOM     32  C12 <0> d          -4.518   1.541  -2.649  0.00  0.00     0.007 A 
ATOM     33  C14 <0> d          -5.768   1.112  -0.522  0.00  0.00     0.049 C 
ATOM     34  C11 <0> d          -3.612   1.163  -3.621  0.00  0.00     0.001 A 
ATOM     35  C10 <0> d          -2.959  -0.051  -3.523  0.00  0.00     0.001 A 
ATOM     36  C9  <0> d          -3.212  -0.888  -2.453  0.00  0.00     0.010 A 
ENDBRANCH   7  30
TORSDOF 7
ENDMDL
MODEL ZINC96293442
REMARK  4 active torsions:
REMARK  status: ('A' for Active; 'I' for Inactive)
REMARK    1  A    between atoms: C2_2  and  C3_3 
REMARK    2  A    between atoms: C6_10  and  N3_21 
REMARK    3  A    between atoms: N2_14  and  C10_15 
REMARK       I    between atoms: N3_21  and  C16_22 
REMARK    4  A    between atoms: C16_22  and  C17_24 
ROOT
ATOM      1  C3  <0> d          -1.563  -0.704  -0.169  0.00  0.00     0.124 C 
ATOM      2  N1  <0> d          -2.559   0.104  -0.135  0.00  0.00    -0.146 NA
ATOM      3  S1  <0> d          -4.106  -0.455   0.078  0.00  0.00     0.287 S 
ATOM      4  O1  <0> d          -4.704  -0.511  -1.210  0.00  0.00    -0.198 OA
ATOM      5  O2  <0> d          -4.667   0.288   1.152  0.00  0.00    -0.198 OA
ATOM      6  C4  <0> d          -3.943  -2.120   0.638  0.00  0.00     0.111 A 
ATOM      7  C5  <0> d          -5.015  -2.789   1.184  0.00  0.00     0.057 A 
ATOM      8  C6  <0> d          -4.859  -4.100   1.620  0.00  0.00     0.036 A 
ATOM      9  C7  <0> d          -3.624  -4.726   1.503  0.00  0.00     0.032 A 
ATOM     10  C8  <0> d          -2.553  -4.053   0.954  0.00  0.00     0.034 A 
ATOM     11  C9  <0> d          -2.706  -2.743   0.516  0.00  0.00     0.064 A 
ATOM     12  N2  <0> d          -1.631  -2.054  -0.051  0.00  0.00    -0.298 N 
ENDROOT
BRANCH   8  13
ATOM     13  N3  <0> d          -5.944  -4.788   2.177  0.00  0.00    -0.323 N 
ATOM     14  C16 <0> d          -7.190  -4.572   1.710  0.00  0.00     0.256 C 
ATOM     15  O3  <0> d          -7.386  -3.707   0.878  0.00  0.00    -0.267 OA
ATOM     16  H14 <0> d          -5.800  -5.420   2.898  0.00  0.00     0.169 HD
BRANCH  14  17
ATOM     17  C17 <0> d          -8.318  -5.386   2.209  0.00  0.00     0.035 A 
ATOM     18  C22 <0> d          -9.609  -5.165   1.728  0.00  0.00     0.059 A 
ATOM     19  C21 <0> d         -10.658  -5.934   2.194  0.00  0.00     0.117 A 
ATOM     20  C20 <0> d         -10.431  -6.914   3.147  0.00  0.00     0.042 A 
ATOM     21  F1  <0> d         -11.908  -5.726   1.725  0.00  0.00    -0.206 F 
ATOM     22  C19 <0> d          -9.153  -7.133   3.632  0.00  0.00     0.004 A 
ATOM     23  C18 <0> d          -8.097  -6.375   3.169  0.00  0.00     0.017 A 
ENDBRANCH  14  17
ENDBRANCH   8  13
BRANCH  12  24
ATOM     24  C10 <0> d          -0.551  -2.805  -0.527  0.00  0.00     0.041 A 
ATOM     25  C15 <0> d          -0.661  -3.503  -1.724  0.00  0.00     0.030 A 
ATOM     26  C14 <0> d           0.409  -4.239  -2.193  0.00  0.00     0.002 A 
ATOM     27  C13 <0> d           1.586  -4.291  -1.468  0.00  0.00     0.000 A 
ATOM     28  C12 <0> d           1.697  -3.602  -0.274  0.00  0.00     0.002 A 
ATOM     29  C11 <0> d           0.632  -2.860   0.199  0.00  0.00     0.030 A 
ENDBRANCH  12  24
BRANCH   1  30
ATOM     30  C2  <0> d          -0.196  -0.100  -0.361  0.00  0.00     0.075 C 
ATOM     31  C1  <0> d          -0.328   1.414  -0.539  0.00  0.00     0.013 C 
ENDBRANCH   1  30
TORSDOF 4
ENDMDL
MODEL ZINC96306370
REMARK  7 active torsions:
REMARK  status: ('A' for Active; 'I' for Inactive)
REMARK    1  A    between atoms: C2_2  and  C3_3 
REMARK    2  A    between atoms: C2_2  and  S1_6 
REMARK    3  A    between atoms: S1_6  and  C4_7 
REMARK    4  A    between atoms: N2_11  and  C7_12 
REMARK    5  A    between atoms: C7_12  and  C8_13 
REMARK    6  A    between atoms: N3_21  and  C17_26 
REMARK    7  A    between atoms: C17_26  and  C18_27 
ROOT
ATOM      1  C4  <0> d           2.509  -0.029  -1.285  0.00  0.00     0.172 A 
ATOM      2  N1  <0> d           2.961   0.652  -0.250  0.00  0.00    -0.204 NA
ATOM      3  C5  <0> d           4.258   0.917  -0.410  0.00  0.00     0.169 A 
ATOM      4  C6  <0> d           4.652   0.368  -1.626  0.00  0.00     0.152 A 
ATOM      5  N2  <0> d           3.524  -0.235  -2.167  0.00  0.00    -0.314 N 
ATOM      6  C14 <0> d           5.988   0.506  -2.041  0.00  0.00     0.282 A 
ATOM      7  O3  <0> d           6.355   0.034  -3.103  0.00  0.00    -0.265 OA
ATOM      8  N3  <0> d           6.859   1.168  -1.252  0.00  0.00    -0.260 N 
ATOM      9  C15 <0> d           6.468   1.695  -0.079  0.00  0.00     0.333 A 
ATOM     10  O4  <0> d           7.281   2.285   0.607  0.00  0.00    -0.246 OA
ATOM     11  N4  <0> d           5.199   1.585   0.357  0.00  0.00    -0.286 N 
ATOM     12  C16 <0> d           4.812   2.174   1.641  0.00  0.00     0.163 C 
ENDROOT
BRANCH   5  13
ATOM     13  C7  <0> d           3.442  -0.953  -3.442  0.00  0.00     0.170 C 
BRANCH  13  14
ATOM     14  C8  <0> d           3.087   0.015  -4.541  0.00  0.00    -0.040 A 
ATOM     15  C13 <0> d           4.087   0.668  -5.237  0.00  0.00     0.009 A 
ATOM     16  C12 <0> d           3.761   1.552  -6.248  0.00  0.00     0.001 A 
ATOM     17  C11 <0> d           2.435   1.791  -6.557  0.00  0.00     0.000 A 
ATOM     18  C10 <0> d           1.435   1.142  -5.857  0.00  0.00     0.001 A 
ATOM     19  C9  <0> d           1.761   0.255  -4.849  0.00  0.00     0.009 A 
ENDBRANCH  13  14
ENDBRANCH   5  13
BRANCH   1  20
ATOM     20  S1  <0> d           0.851  -0.589  -1.490  0.00  0.00    -0.076 SA
BRANCH  20  21
ATOM     21  C2  <0> d           0.002  -0.004   0.002  0.00  0.00     0.152 C 
ATOM     22  C1  <0> d          -0.019   1.526   0.010  0.00  0.00     0.033 C 
BRANCH  21  23
ATOM     23  C3  <0> d          -1.412  -0.526   0.013  0.00  0.00     0.187 C 
ATOM     24  O1  <0> d          -2.305   0.124  -0.503  0.00  0.00    -0.647 OA
ATOM     25  O2  <0> d          -1.662  -1.597   0.537  0.00  0.00    -0.647 OA
ENDBRANCH  21  23
ENDBRANCH  20  21
ENDBRANCH   1  20
BRANCH   8  26
ATOM     26  C17 <0> d           8.253   1.315  -1.680  0.00  0.00     0.175 C 
BRANCH  26  27
ATOM     27  C18 <0> d           8.401   2.581  -2.483  0.00  0.00    -0.040 A 
ATOM     28  C23 <0> d           8.713   3.769  -1.849  0.00  0.00     0.009 A 
ATOM     29  C22 <0> d           8.854   4.930  -2.586  0.00  0.00     0.001 A 
ATOM     30  C21 <0> d           8.673   4.905  -3.956  0.00  0.00     0.000 A 
ATOM     31  C20 <0> d           8.356   3.718  -4.590  0.00  0.00     0.001 A 
ATOM     32  C19 <0> d           8.220   2.556  -3.853  0.00  0.00     0.009 A 
ENDBRANCH  26  27
ENDBRANCH   8  26
TORSDOF 7
ENDMDL
MODEL ZINC65197538
REMARK  5 active torsions:
REMARK  status: ('A' for Active; 'I' for Inactive)
REMARK    1  A    between atoms: C6_6  and  C7_7 
REMARK    2  A    between atoms: C8_9  and  C9_12 
REMARK    3  A    between atoms: N3_17  and  C13_19 
REMARK    4  A    between atoms: C13_19  and  C14_20 
REMARK       I    between atoms: C14_20  and  N5_22 
REMARK    5  A    between atoms: N5_22  and  C15_23 
ROOT
ATOM      1  C9  <0> d          -3.173  -3.831   0.014  0.00  0.00     0.132 A 
ATOM      2  C10 <0> d          -4.570  -4.062   0.027  0.00  0.00     0.043 A 
ATOM      3  C11 <0> d          -5.011  -5.352   0.037  0.00  0.00     0.078 A 
ATOM      4  C12 <0> d          -4.043  -6.381   0.033  0.00  0.00     0.264 A 
ATOM      5  O2  <0> d          -4.391  -7.551   0.042  0.00  0.00    -0.267 OA
ATOM      6  N3  <0> d          -2.735  -6.063   0.021  0.00  0.00    -0.225 N 
ATOM      7  N4  <0> d          -2.336  -4.843   0.006  0.00  0.00    -0.165 NA
ENDROOT
BRANCH   1   8
ATOM      8  C8  <0> d          -2.655  -2.446   0.003  0.00  0.00     0.227 A 
ATOM      9  N1  <0> d          -1.390  -2.098  -0.015  0.00  0.00    -0.198 NA
ATOM     10  C7  <0> d          -1.283  -0.760  -0.021  0.00  0.00     0.189 A 
ATOM     11  N2  <0> d          -2.487  -0.239  -0.002  0.00  0.00    -0.105 NA
ATOM     12  O1  <0> d          -3.400  -1.326   0.008  0.00  0.00    -0.189 OA
BRANCH  10  13
ATOM     13  C6  <0> d          -0.012   0.005  -0.040  0.00  0.00     0.014 A 
ATOM     14  C1  <0> d          -0.034   1.398  -0.038  0.00  0.00     0.018 A 
ATOM     15  C2  <0> d           1.150   2.105  -0.056  0.00  0.00     0.043 A 
ATOM     16  C3  <0> d           2.361   1.432  -0.074  0.00  0.00     0.116 A 
ATOM     17  C4  <0> d           2.388   0.046  -0.075  0.00  0.00     0.043 A 
ATOM     18  F1  <0> d           3.519   2.128  -0.091  0.00  0.00    -0.206 F 
ATOM     19  C5  <0> d           1.208  -0.668  -0.059  0.00  0.00     0.018 A 
ENDBRANCH  10  13
ENDBRANCH   1   8
BRANCH   6  20
ATOM     20  C13 <0> d          -1.740  -7.139   0.017  0.00  0.00     0.257 C 
BRANCH  20  21
ATOM     21  C14 <0> d          -1.411  -7.514  -1.405  0.00  0.00     0.242 C 
ATOM     22  O3  <0> d          -1.955  -6.940  -2.325  0.00  0.00    -0.271 OA
ATOM     23  N5  <0> d          -0.514  -8.488  -1.654  0.00  0.00    -0.326 N 
ATOM     24  H9  <0> d          -0.030  -8.901  -0.922  0.00  0.00     0.169 HD
BRANCH  23  25
ATOM     25  C15 <0> d          -0.280  -8.904  -2.970  0.00  0.00     0.034 A 
ATOM     26  C20 <0> d          -0.327  -7.984  -4.009  0.00  0.00     0.031 A 
ATOM     27  C19 <0> d          -0.089  -8.395  -5.306  0.00  0.00     0.026 A 
ATOM     28  C18 <0> d           0.184  -9.726  -5.572  0.00  0.00     0.034 A 
ATOM     29  C17 <0> d           0.225 -10.646  -4.539  0.00  0.00     0.026 A 
ATOM     30 Cl1  <0> d           0.475 -10.241  -7.203  0.00  0.00    -0.084 Cl
ATOM     31  C16 <0> d          -0.006 -10.238  -3.239  0.00  0.00     0.031 A 
ENDBRANCH  23  25
ENDBRANCH  20  21
ENDBRANCH   6  20
TORSDOF 5
ENDMDL
MODEL ZINC65021629
REMARK  4 active torsions:
REMARK  status: ('A' for Active; 'I' for Inactive)
REMARK    1  A    between atoms: C5_5  and  N1_9 
REMARK    2  A    between atoms: N1_9  and  S1_10 
REMARK    3  A    between atoms: S1_10  and  C8_13 
REMARK    4  A    between atoms: C15_22  and  C16_24 
REMARK       I    between atoms: C16_24  and  N3_26 
ROOT
ATOM      1  C8  <0> d           0.016  -6.756   0.959  0.00  0.00     0.084 A 
ATOM      2  C9  <0> d          -1.161  -7.463   0.793  0.00  0.00     0.027 A 
ATOM      3  C10 <0> d          -1.117  -8.810   0.480  0.00  0.00     0.022 A 
ATOM      4  C11 <0> d           0.105  -9.446   0.338  0.00  0.00     0.028 A 
ATOM      5  C12 <0> d           1.296  -8.742   0.511  0.00  0.00     0.053 A 
ATOM      6  C13 <0> d           1.237  -7.385   0.814  0.00  0.00     0.056 A 
ATOM      7  N2  <0> d           2.538  -9.359   0.397  0.00  0.00    -0.324 N 
ATOM      8  C14 <0> d           2.781 -10.665   0.420  0.00  0.00     0.245 C 
ATOM      9  O3  <0> d           3.910 -11.046   0.196  0.00  0.00    -0.271 OA
ATOM     10  C15 <0> d           1.721 -11.696   0.710  0.00  0.00     0.236 C 
ATOM     11  S2  <0> d           0.168 -11.163  -0.072  0.00  0.00    -0.103 SA
ATOM     12  H11 <0> d           3.306  -8.775   0.290  0.00  0.00     0.169 HD
ENDROOT
BRANCH   1  13
ATOM     13  S1  <0> d          -0.042  -5.040   1.352  0.00  0.00     0.283 S 
ATOM     14  O1  <0> d           1.189  -4.726   1.987  0.00  0.00    -0.198 OA
ATOM     15  O2  <0> d          -1.300  -4.807   1.971  0.00  0.00    -0.198 OA
BRANCH  13  16
ATOM     16  N1  <0> d          -0.060  -4.210  -0.082  0.00  0.00    -0.160 NA
BRANCH  16  17
ATOM     17  C5  <0> d          -0.106  -2.814  -0.080  0.00  0.00     0.073 A 
ATOM     18  C4  <0> d          -0.121  -2.117  -1.282  0.00  0.00     0.033 A 
ATOM     19  C3  <0> d          -0.167  -0.737  -1.278  0.00  0.00     0.012 A 
ATOM     20  C2  <0> d          -0.197  -0.047  -0.080  0.00  0.00    -0.023 A 
ATOM     21  C1  <0> d          -0.247   1.459  -0.080  0.00  0.00     0.051 C 
ATOM     22  C7  <0> d          -0.177  -0.738   1.121  0.00  0.00     0.124 A 
ATOM     23  C6  <0> d          -0.137  -2.121   1.123  0.00  0.00     0.075 A 
ATOM     24  F1  <0> d          -0.202  -0.061   2.290  0.00  0.00    -0.205 F 
ENDBRANCH  16  17
ENDBRANCH  13  16
ENDBRANCH   1  13
BRANCH  10  25
ATOM     25  C16 <0> d           1.528 -11.818   2.200  0.00  0.00     0.243 C 
ATOM     26  O4  <0> d           1.733 -10.862   2.918  0.00  0.00    -0.272 OA
ATOM     27  N3  <0> d           1.126 -12.988   2.734  0.00  0.00    -0.351 N 
ATOM     28  C21 <0> d           0.964 -14.180   1.890  0.00  0.00     0.126 C 
ATOM     29  C17 <0> d           0.836 -13.095   4.170  0.00  0.00     0.126 C 
ATOM     30  C20 <0> d          -0.439 -14.747   2.094  0.00  0.00     0.024 C 
ATOM     31  C19 <0> d          -0.675 -14.996   3.585  0.00  0.00    -0.015 C 
ATOM     32  C18 <0> d          -0.572 -13.673   4.348  0.00  0.00     0.024 C 
ATOM     33  C22 <0> d          -2.069 -15.594   3.788  0.00  0.00     0.010 C 
ENDBRANCH  10  25
TORSDOF 4
ENDMDL
MODEL ZINC96327306
REMARK  6 active torsions:
REMARK  status: ('A' for Active; 'I' for Inactive)
REMARK    1  A    between atoms: N1_2  and  C2_3 
REMARK    2  A    between atoms: C2_3  and  C3_4 
REMARK    3  A    between atoms: C3_4  and  C4_5 
REMARK    4  A    between atoms: C3_4  and  C15_17 
REMARK    5  A    between atoms: C4_5  and  O1_6 
REMARK    6  A    between atoms: O1_6  and  C5_7 
ROOT
ATOM      1  C4  <0> d          -2.786  -2.571  -0.111  0.00  0.00     0.187 C 
ENDROOT
BRANCH   1   2
ATOM      2  C3  <0> d          -1.355  -2.042   0.004  0.00  0.00     0.075 C 
BRANCH   2   3
ATOM      3  C2  <0> d          -1.376  -0.512   0.012  0.00  0.00     0.243 C 
BRANCH   3   4
ATOM      4  N1  <0> d           0.002  -0.004   0.002  0.00  0.00    -0.078 N 
ATOM      5  C1  <0> d          -0.018   1.465   0.010  0.00  0.00     0.267 C 
ATOM      6  H5  <0> d           0.474  -0.330  -0.828  0.00  0.00     0.276 HD
ATOM      7  H20 <0> d           0.490  -0.338   0.820  0.00  0.00     0.276 HD
ENDBRANCH   3   4
ENDBRANCH   2   3
BRANCH   2   8
ATOM      8  C15 <0> d          -0.736  -2.543   1.283  0.00  0.00    -0.010 A 
ATOM      9  S1  <0> d          -1.266  -2.280   2.967  0.00  0.00    -0.106 SA
ATOM     10  C18 <0> d           0.019  -3.212   3.784  0.00  0.00     0.050 A 
ATOM     11  C17 <0> d           0.759  -3.648   2.736  0.00  0.00     0.008 A 
ATOM     12  C16 <0> d           0.372  -3.306   1.454  0.00  0.00     0.015 A 
ENDBRANCH   2   8
ENDBRANCH   1   2
BRANCH   1  13
ATOM     13  O1  <0> d          -2.760  -3.994  -0.236  0.00  0.00    -0.349 OA
BRANCH  13  14
ATOM     14  C5  <0> d          -3.957  -4.626  -0.349  0.00  0.00     0.079 A 
ATOM     15  C10 <0> d          -4.010  -6.029  -0.476  0.00  0.00     0.007 A 
ATOM     16  C9  <0> d          -5.269  -6.668  -0.588  0.00  0.00    -0.023 A 
ATOM     17  C11 <0> d          -2.839  -6.805  -0.488  0.00  0.00     0.015 A 
ATOM     18  C8  <0> d          -6.440  -5.891  -0.580  0.00  0.00     0.012 A 
ATOM     19  C14 <0> d          -5.323  -8.068  -0.709  0.00  0.00     0.012 A 
ATOM     20  C7  <0> d          -6.353  -4.538  -0.461  0.00  0.00     0.004 A 
ATOM     21  C6  <0> d          -5.118  -3.905  -0.346  0.00  0.00     0.037 A 
ATOM     22  C13 <0> d          -4.167  -8.787  -0.727  0.00  0.00     0.001 A 
ATOM     23  C12 <0> d          -2.929  -8.158  -0.612  0.00  0.00     0.001 A 
ENDBRANCH  13  14
ENDBRANCH   1  13
TORSDOF 6
ENDMDL
MODEL ZINC62468968
REMARK  7 active torsions:
REMARK  status: ('A' for Active; 'I' for Inactive)
REMARK    1  A    between atoms: C2_2  and  C3_3 
REMARK    2  A    between atoms: C3_3  and  C4_4 
REMARK    3  A    between atoms: C4_4  and  C5_5 
REMARK    4  A    between atoms: C5_5  and  C6_6 
REMARK    5  A    between atoms: C5_5  and  N1_9 
REMARK    6  A    between atoms: C7_10  and  C8_14 
REMARK    7  A    between atoms: C12_18  and  N5_20 
ROOT
ATOM      1  N1  <0> d          -3.213  -4.151  -0.031  0.00  0.00    -0.215 N 
ATOM      2  C7  <0> d          -3.298  -4.807   1.153  0.00  0.00     0.182 A 
ATOM      3  N2  <0> d          -2.705  -5.971   0.993  0.00  0.00    -0.108 NA
ATOM      4  N3  <0> d          -2.257  -6.087  -0.205  0.00  0.00    -0.023 NA
ATOM      5  N4  <0> d          -2.530  -5.029  -0.891  0.00  0.00    -0.043 NA
ENDROOT
BRANCH   2   6
ATOM      6  C8  <0> d          -3.937  -4.308   2.391  0.00  0.00     0.015 A 
ATOM      7  C13 <0> d          -4.558  -5.198   3.265  0.00  0.00     0.044 A 
ATOM      8  C12 <0> d          -5.150  -4.724   4.426  0.00  0.00     0.032 A 
ATOM      9  C11 <0> d          -5.131  -3.363   4.710  0.00  0.00    -0.036 A 
ATOM     10  C10 <0> d          -4.519  -2.480   3.840  0.00  0.00     0.010 A 
ATOM     11  C14 <0> d          -5.778  -2.849   5.970  0.00  0.00     0.050 C 
ATOM     12  C9  <0> d          -3.923  -2.944   2.685  0.00  0.00     0.016 A 
BRANCH   8  13
ATOM     13  N5  <0> d          -5.769  -5.613   5.309  0.00  0.00    -0.399 N 
ATOM     14  H14 <0> d          -6.185  -5.280   6.119  0.00  0.00     0.156 HD
ATOM     15  H15 <0> d          -5.782  -6.562   5.111  0.00  0.00     0.156 HD
ENDBRANCH   8  13
ENDBRANCH   2   6
BRANCH   1  16
ATOM     16  C5  <0> d          -3.729  -2.817  -0.348  0.00  0.00     0.214 C 
BRANCH  16  17
ATOM     17  C4  <0> d          -2.559  -1.867  -0.608  0.00  0.00     0.038 C 
BRANCH  17  18
ATOM     18  C3  <0> d          -3.091  -0.448  -0.817  0.00  0.00     0.002 C 
BRANCH  18  19
ATOM     19  C2  <0> d          -1.921   0.503  -1.076  0.00  0.00    -0.004 C 
ATOM     20  C1  <0> d          -2.453   1.922  -1.285  0.00  0.00     0.005 C 
ENDBRANCH  18  19
ENDBRANCH  17  18
ENDBRANCH  16  17
BRANCH  16  21
ATOM     21  C6  <0> d          -4.597  -2.893  -1.578  0.00  0.00     0.199 C 
ATOM     22  O1  <0> d          -4.127  -3.286  -2.632  0.00  0.00    -0.646 OA
ATOM     23  O2  <0> d          -5.769  -2.563  -1.519  0.00  0.00    -0.646 OA
ENDBRANCH  16  21
ENDBRANCH   1  16
TORSDOF 7
ENDMDL
MODEL ZINC96386907
REMARK  5 active torsions:
REMARK  status: ('A' for Active; 'I' for Inactive)
REMARK    1  A    between atoms: C5_5  and  N1_8 
REMARK    2  A    between atoms: C8_9  and  C15_18 
REMARK    3  A    between atoms: C15_18  and  C16_19 
REMARK       I    between atoms: C16_19  and  N3_21 
REMARK    4  A    between atoms: N3_21  and  C17_22 
REMARK    5  A    between atoms: C17_22  and  C18_23 
ROOT
ATOM      1  N1  <0> d          -0.002  -4.266  -0.075  0.00  0.00    -0.303 N 
ATOM      2  C8  <0> d           0.161  -5.053   1.152  0.00  0.00     0.155 A 
ATOM      3  C9  <0> d           0.162  -6.502   0.730  0.00  0.00     0.073 A 
ATOM      4  C10 <0> d           0.008  -6.504  -0.659  0.00  0.00     0.059 A 
ATOM      5  C11 <0> d          -0.026  -7.729  -1.332  0.00  0.00     0.020 A 
ATOM      6  C12 <0> d           0.095  -8.889  -0.587  0.00  0.00     0.020 A 
ATOM      7  C13 <0> d           0.245  -8.801   0.785  0.00  0.00     0.117 A 
ATOM      8  N2  <0> d           0.274  -7.630   1.395  0.00  0.00    -0.262 NA
ATOM      9  C14 <0> d          -0.095  -5.108  -1.119  0.00  0.00     0.261 A 
ATOM     10  O1  <0> d          -0.241  -4.767  -2.277  0.00  0.00    -0.267 OA
ENDROOT
BRANCH   2  11
ATOM     11  C15 <0> d          -1.004  -4.784   2.107  0.00  0.00     0.135 C 
BRANCH  11  12
ATOM     12  C16 <0> d          -0.750  -5.482   3.418  0.00  0.00     0.220 C 
ATOM     13  O2  <0> d           0.310  -6.037   3.614  0.00  0.00    -0.274 OA
ATOM     14  N3  <0> d          -1.702  -5.490   4.372  0.00  0.00    -0.357 N 
ATOM     15  H14 <0> d          -2.550  -5.046   4.216  0.00  0.00     0.162 HD
BRANCH  14  16
ATOM     16  C17 <0> d          -1.456  -6.169   5.647  0.00  0.00     0.161 C 
BRANCH  16  17
ATOM     17  C18 <0> d          -2.667  -6.032   6.532  0.00  0.00    -0.040 A 
ATOM     18  C23 <0> d          -3.670  -6.982   6.484  0.00  0.00     0.015 A 
ATOM     19  C22 <0> d          -4.779  -6.858   7.300  0.00  0.00    -0.061 A 
ATOM     20  C21 <0> d          -4.891  -5.779   8.156  0.00  0.00     0.007 A 
ATOM     21  C24 <0> d          -5.869  -7.898   7.252  0.00  0.00     0.048 C 
ATOM     22  C20 <0> d          -3.890  -4.825   8.200  0.00  0.00     0.001 A 
ATOM     23  C19 <0> d          -2.779  -4.952   7.388  0.00  0.00     0.009 A 
ENDBRANCH  16  17
ENDBRANCH  14  16
ENDBRANCH  11  12
ENDBRANCH   2  11
BRANCH   1  24
ATOM     24  C5  <0> d          -0.058  -2.871  -0.147  0.00  0.00     0.038 A 
ATOM     25  C4  <0> d          -0.348  -2.247  -1.354  0.00  0.00     0.030 A 
ATOM     26  C3  <0> d          -0.402  -0.868  -1.421  0.00  0.00     0.009 A 
ATOM     27  C2  <0> d          -0.168  -0.110  -0.289  0.00  0.00    -0.062 A 
ATOM     28  C1  <0> d          -0.229   1.394  -0.366  0.00  0.00     0.048 C 
ATOM     29  C7  <0> d           0.126  -0.727   0.912  0.00  0.00     0.009 A 
ATOM     30  C6  <0> d           0.177  -2.106   0.988  0.00  0.00     0.030 A 
ENDBRANCH   1  24
TORSDOF 5
ENDMDL
MODEL ZINC72271848
REMARK  5 active torsions:
REMARK  status: ('A' for Active; 'I' for Inactive)
REMARK    1  A    between atoms: C2_2  and  C3_3 
REMARK    2  A    between atoms: C2_2  and  N1_9 
REMARK       I    between atoms: N1_9  and  C9_10 
REMARK       I    between atoms: C9_10  and  N3_15 
REMARK    3  A    between atoms: N2_11  and  C10_12 
REMARK    4  A    between atoms: N3_15  and  C13_16 
REMARK    5  A    between atoms: C13_16  and  C14_17 
ROOT
ATOM      1  N1  <0> d          -1.197  -0.891   0.123  0.00  0.00    -0.218 N 
ATOM      2  C9  <0> d          -1.989  -0.743   1.237  0.00  0.00     0.670 C 
ATOM      3  N2  <0> d          -1.516  -0.155   2.300  0.00  0.00    -0.222 N 
ATOM      4  N3  <0> d          -3.280  -1.216   1.230  0.00  0.00    -0.222 N 
ATOM      5  H10 <0> d          -0.263  -0.631   0.154  0.00  0.00     0.178 HD
ATOM      6  H16 <0> d          -3.632  -1.653   0.440  0.00  0.00     0.178 HD
ATOM      7  H24 <0> d          -2.046  -0.120   3.112  0.00  0.00     0.178 HD
ENDROOT
BRANCH   1   8
ATOM      8  C2  <0> d          -1.764  -1.440  -1.111  0.00  0.00     0.128 C 
ATOM      9  C1  <0> d          -1.694  -2.968  -1.069  0.00  0.00     0.038 C 
BRANCH   8  10
ATOM     10  C3  <0> d          -0.979  -0.933  -2.293  0.00  0.00    -0.035 A 
ATOM     11  C8  <0> d          -1.635  -0.569  -3.454  0.00  0.00     0.009 A 
ATOM     12  C7  <0> d          -0.915  -0.100  -4.537  0.00  0.00     0.001 A 
ATOM     13  C6  <0> d           0.462  -0.005  -4.462  0.00  0.00     0.000 A 
ATOM     14  C5  <0> d           1.119  -0.374  -3.304  0.00  0.00     0.001 A 
ATOM     15  C4  <0> d           0.398  -0.839  -2.219  0.00  0.00     0.009 A 
ENDBRANCH   8  10
ENDBRANCH   1   8
BRANCH   3  16
ATOM     16  C10 <0> d          -0.183   0.452   2.269  0.00  0.00     0.099 A 
ATOM     17  C12 <0> d           0.141   1.497   3.338  0.00  0.00     0.028 A 
ATOM     18  C11 <0> d           0.777   0.107   3.409  0.00  0.00     0.028 A 
ENDBRANCH   3  16
BRANCH   4  19
ATOM     19  C13 <0> d          -4.124  -1.059   2.418  0.00  0.00     0.176 C 
BRANCH  19  20
ATOM     20  C14 <0> d          -5.482  -1.657   2.152  0.00  0.00    -0.040 A 
ATOM     21  C19 <0> d          -5.720  -2.987   2.443  0.00  0.00     0.009 A 
ATOM     22  C18 <0> d          -6.967  -3.534   2.203  0.00  0.00     0.001 A 
ATOM     23  C17 <0> d          -7.972  -2.754   1.663  0.00  0.00     0.000 A 
ATOM     24  C16 <0> d          -7.732  -1.425   1.367  0.00  0.00     0.001 A 
ATOM     25  C15 <0> d          -6.487  -0.876   1.611  0.00  0.00     0.009 A 
ENDBRANCH  19  20
ENDBRANCH   4  19
TORSDOF 5
ENDMDL
MODEL ZINC00272666
REMARK  3 active torsions:
REMARK  status: ('A' for Active; 'I' for Inactive)
REMARK    1  A    between atoms: C6_6  and  N1_8 
REMARK    2  A    between atoms: C8_9  and  C9_10 
REMARK    3  A    between atoms: C14_15  and  O1_16 
ROOT
ATOM      1  N1  <0> d           0.051  -2.787   2.367  0.00  0.00    -0.257 NA
ATOM      2  C8  <0> d          -0.594  -2.326   3.402  0.00  0.00     0.131 C 
ENDROOT
BRANCH   1   3
ATOM      3  C6  <0> d           0.043  -2.089   1.190  0.00  0.00     0.094 A 
ATOM      4  C5  <0> d          -0.225  -2.747  -0.018  0.00  0.00     0.141 A 
ATOM      5  C4  <0> d          -0.231  -2.032  -1.203  0.00  0.00    -0.023 A 
ATOM      6  O2  <0> d          -0.479  -4.082  -0.025  0.00  0.00    -0.189 OA
ATOM      7  C3  <0> d           0.027  -0.674  -1.195  0.00  0.00     0.016 A 
ATOM      8  C15 <0> d          -0.520  -2.735  -2.505  0.00  0.00     0.051 C 
ATOM      9  C2  <0> d           0.292  -0.019  -0.004  0.00  0.00    -0.059 A 
ATOM     10  C1  <0> d           0.571   1.462  -0.008  0.00  0.00     0.048 C 
ATOM     11  C7  <0> d           0.307  -0.718   1.185  0.00  0.00     0.041 A 
ENDBRANCH   1   3
BRANCH   2  12
ATOM     12  C9  <0> d          -0.490  -3.012   4.698  0.00  0.00     0.016 A 
ATOM     13  C14 <0> d           0.303  -4.163   4.826  0.00  0.00     0.077 A 
ATOM     14  C13 <0> d           0.400  -4.797   6.054  0.00  0.00     0.039 A 
ATOM     15  C12 <0> d          -0.291  -4.306   7.145  0.00  0.00     0.026 A 
ATOM     16  C11 <0> d          -1.081  -3.174   7.023  0.00  0.00     0.035 A 
ATOM     17  C10 <0> d          -1.184  -2.525   5.810  0.00  0.00     0.039 A 
ATOM     18 Cl1  <0> d          -1.944  -2.568   8.402  0.00  0.00    -0.084 Cl
BRANCH  13  19
ATOM     19  O1  <0> d           0.978  -4.648   3.753  0.00  0.00    -0.360 OA
ATOM     20  H10 <0> d           1.869  -4.286   3.651  0.00  0.00     0.217 HD
ENDBRANCH  13  19
ENDBRANCH   2  12
TORSDOF 3
ENDMDL
MODEL ZINC08660778
REMARK  7 active torsions:
REMARK  status: ('A' for Active; 'I' for Inactive)
REMARK    1  A    between atoms: C4_4  and  C7_7 
REMARK    2  A    between atoms: N1_8  and  O1_9 
REMARK    3  A    between atoms: O1_9  and  C8_10 
REMARK    4  A    between atoms: C8_10  and  C9_11 
REMARK       I    between atoms: C9_11  and  N2_13 
REMARK    5  A    between atoms: N2_13  and  N3_14 
REMARK    6  A    between atoms: N4_22  and  C18_25 
REMARK    7  A    between atoms: C18_25  and  N5_26 
ROOT
ATOM      1  N3  <0> d           7.599  -6.637  -0.108  0.00  0.00    -0.166 NA
ATOM      2  C10 <0> d           7.727  -7.939  -0.017  0.00  0.00     0.157 A 
ATOM      3  C11 <0> d           6.646  -8.952  -0.001  0.00  0.00     0.027 A 
ATOM      4  C12 <0> d           5.260  -8.867  -0.070  0.00  0.00     0.016 A 
ATOM      5  C13 <0> d           4.501 -10.020  -0.029  0.00  0.00     0.001 A 
ATOM      6  C14 <0> d           5.118 -11.254   0.079  0.00  0.00     0.002 A 
ATOM      7  C15 <0> d           6.494 -11.349   0.149  0.00  0.00     0.031 A 
ATOM      8  C16 <0> d           7.275 -10.199   0.110  0.00  0.00     0.052 A 
ATOM      9  N4  <0> d           8.653 -10.017   0.161  0.00  0.00    -0.284 N 
ATOM     10  C17 <0> d           8.979  -8.715   0.085  0.00  0.00     0.281 A 
ATOM     11  O3  <0> d          10.107  -8.258   0.100  0.00  0.00    -0.265 OA
ENDROOT
BRANCH   1  12
ATOM     12  N2  <0> d           6.331  -6.050  -0.014  0.00  0.00    -0.244 N 
ATOM     13  C9  <0> d           6.186  -4.725  -0.217  0.00  0.00     0.264 C 
ATOM     14  O2  <0> d           7.152  -4.043  -0.482  0.00  0.00    -0.269 OA
ATOM     15  H9  <0> d           5.558  -6.596   0.198  0.00  0.00     0.192 HD
BRANCH  13  16
ATOM     16  C8  <0> d           4.822  -4.093  -0.117  0.00  0.00     0.308 C 
BRANCH  16  17
ATOM     17  O1  <0> d           4.926  -2.691  -0.372  0.00  0.00    -0.247 OA
BRANCH  17  18
ATOM     18  N1  <0> d           3.693  -1.998  -0.301  0.00  0.00    -0.145 NA
ATOM     19  C7  <0> d           3.654  -0.723  -0.513  0.00  0.00     0.157 C 
BRANCH  19  20
ATOM     20  C4  <0> d           2.368  -0.002  -0.439  0.00  0.00    -0.017 A 
ATOM     21  C3  <0> d           2.323   1.375  -0.667  0.00  0.00     0.013 A 
ATOM     22  C2  <0> d           1.118   2.043  -0.597  0.00  0.00     0.001 A 
ATOM     23  C1  <0> d          -0.044   1.352  -0.302  0.00  0.00     0.000 A 
ATOM     24  C6  <0> d          -0.006  -0.012  -0.075  0.00  0.00     0.001 A 
ATOM     25  C5  <0> d           1.192  -0.693  -0.142  0.00  0.00     0.013 A 
ENDBRANCH  19  20
ENDBRANCH  17  18
ENDBRANCH  16  17
ENDBRANCH  13  16
ENDBRANCH   1  12
BRANCH   9  26
ATOM     26  C18 <0> d           9.625 -11.106   0.277  0.00  0.00     0.405 C 
BRANCH  26  27
ATOM     27  N5  <0> d          10.014 -11.560  -1.065  0.00  0.00     0.106 N 
ATOM     28  C24 <0> d          11.280 -12.151  -1.046  0.00  0.00     0.274 C 
ATOM     29  C23 <0> d          11.803 -12.430  -2.473  0.00  0.00     0.030 C 
ATOM     30  C22 <0> d          11.120 -13.659  -3.016  0.00  0.00     0.002 C 
ATOM     31  C21 <0> d           9.855 -13.323  -3.831  0.00  0.00     0.002 C 
ATOM     32  C20 <0> d           9.021 -12.214  -3.167  0.00  0.00     0.030 C 
ATOM     33  C19 <0> d           8.953 -12.389  -1.671  0.00  0.00     0.274 C 
ENDBRANCH  26  27
ENDBRANCH   9  26
TORSDOF 7
ENDMDL
MODEL ZINC62375242
REMARK  6 active torsions:
REMARK  status: ('A' for Active; 'I' for Inactive)
REMARK    1  A    between atoms: C4_4  and  N2_14 
REMARK    2  A    between atoms: C7_7  and  N1_8 
REMARK    3  A    between atoms: N2_14  and  C12_15 
REMARK    4  A    between atoms: C12_15  and  C13_16 
REMARK       I    between atoms: C13_16  and  N3_18 
REMARK    5  A    between atoms: C14_19  and  C23_30 
REMARK    6  A    between atoms: C16_21  and  C17_23 
ROOT
ATOM      1  C13 <0> d           0.047  -4.729  -3.852  0.00  0.00     0.258 C 
ATOM      2  O2  <0> d           0.032  -3.936  -4.770  0.00  0.00    -0.270 OA
ATOM      3  N3  <0> d           0.064  -6.053  -4.105  0.00  0.00    -0.225 N 
ATOM      4  C14 <0> d           0.071  -6.668  -5.442  0.00  0.00     0.176 A 
ATOM      5  C15 <0> d           0.091  -8.180  -5.143  0.00  0.00     0.096 A 
ATOM      6  C16 <0> d           0.093  -8.253  -3.633  0.00  0.00     0.067 A 
ATOM      7  N4  <0> d           0.083  -7.061  -3.144  0.00  0.00    -0.173 NA
ENDROOT
BRANCH   1   8
ATOM      8  C12 <0> d           0.048  -4.234  -2.428  0.00  0.00     0.224 C 
BRANCH   8   9
ATOM      9  N2  <0> d           0.028  -2.769  -2.420  0.00  0.00    -0.381 N 
ATOM     10  H14 <0> d           0.017  -2.280  -3.258  0.00  0.00     0.160 HD
BRANCH   9  11
ATOM     11  C4  <0> d           0.025  -2.076  -1.205  0.00  0.00     0.029 A 
ATOM     12  C3  <0> d           0.006  -0.688  -1.198  0.00  0.00     0.038 A 
ATOM     13  C2  <0> d           0.002  -0.004   0.002  0.00  0.00    -0.033 A 
ATOM     14  C1  <0> d          -0.018   1.503   0.010  0.00  0.00     0.050 C 
ATOM     15  C7  <0> d           0.023  -0.705   1.200  0.00  0.00     0.043 A 
ATOM     16  C6  <0> d           0.036  -2.093   1.193  0.00  0.00     0.032 A 
ATOM     17  C5  <0> d           0.040  -2.777  -0.006  0.00  0.00     0.031 A 
BRANCH  15  18
ATOM     18  N1  <0> d           0.025  -0.010   2.418  0.00  0.00    -0.318 N 
ATOM     19  C11 <0> d           1.136   0.380   3.067  0.00  0.00     0.224 C 
ATOM     20  C10 <0> d           0.766   1.096   4.347  0.00  0.00     0.105 C 
ATOM     21  O1  <0> d           2.269   0.189   2.680  0.00  0.00    -0.273 OA
ATOM     22  C9  <0> d          -0.711   0.706   4.585  0.00  0.00     0.029 C 
ATOM     23  C8  <0> d          -1.185   0.379   3.152  0.00  0.00     0.133 C 
ENDBRANCH  15  18
ENDBRANCH   9  11
ENDBRANCH   8   9
ENDBRANCH   1   8
BRANCH   4  24
ATOM     24  C23 <0> d           1.303  -6.259  -6.207  0.00  0.00     0.077 A 
ATOM     25  O3  <0> d           2.535  -6.114  -5.693  0.00  0.00    -0.325 OA
ATOM     26  C26 <0> d           3.385  -5.744  -6.665  0.00  0.00     0.142 A 
ATOM     27  C25 <0> d           2.696  -5.639  -7.815  0.00  0.00     0.027 A 
ATOM     28  C24 <0> d           1.354  -5.971  -7.520  0.00  0.00     0.037 A 
ENDBRANCH   4  24
BRANCH   6  29
ATOM     29  C17 <0> d           0.110  -9.497  -2.841  0.00  0.00    -0.010 A 
ATOM     30  C22 <0> d           0.110  -9.441  -1.445  0.00  0.00     0.015 A 
ATOM     31  C21 <0> d           0.121 -10.608  -0.711  0.00  0.00     0.024 A 
ATOM     32  C20 <0> d           0.142 -11.834  -1.354  0.00  0.00     0.034 A 
ATOM     33  C19 <0> d           0.148 -11.897  -2.737  0.00  0.00     0.024 A 
ATOM     34 Cl1  <0> d           0.162 -13.298  -0.422  0.00  0.00    -0.084 Cl
ATOM     35  C18 <0> d           0.132 -10.738  -3.484  0.00  0.00     0.015 A 
ENDBRANCH   6  29
TORSDOF 6
ENDMDL
MODEL ZINC97113496
REMARK  5 active torsions:
REMARK  status: ('A' for Active; 'I' for Inactive)
REMARK    1  A    between atoms: C6_7  and  N2_8 
REMARK       I    between atoms: N2_8  and  C7_9 
REMARK       I    between atoms: C7_9  and  N3_11 
REMARK    2  A    between atoms: N3_11  and  C8_12 
REMARK    3  A    between atoms: N3_11  and  C11_16 
REMARK    4  A    between atoms: C8_12  and  C9_13 
REMARK    5  A    between atoms: C9_13  and  O2_15 
ROOT
ATOM      1  N2  <0> d           0.025  -0.058   2.425  0.00  0.00    -0.307 N 
ATOM      2  C7  <0> d          -0.056  -0.762   3.572  0.00  0.00     0.323 C 
ATOM      3  O1  <0> d          -0.040  -1.978   3.541  0.00  0.00    -0.247 OA
ATOM      4  N3  <0> d          -0.156  -0.119   4.752  0.00  0.00    -0.327 N 
ATOM      5  H8  <0> d           0.095   0.909   2.454  0.00  0.00     0.170 HD
ENDROOT
BRANCH   4   6
ATOM      6  C8  <0> d          -0.175   1.345   4.788  0.00  0.00     0.159 C 
BRANCH   6   7
ATOM      7  C9  <0> d          -1.620   1.838   4.689  0.00  0.00     0.132 C 
ATOM      8  C10 <0> d          -1.641   3.368   4.727  0.00  0.00     0.041 C 
BRANCH   7   9
ATOM      9  O2  <0> d          -2.195   1.385   3.462  0.00  0.00    -0.394 OA
ATOM     10  H14 <0> d          -1.732   1.696   2.672  0.00  0.00     0.210 HD
ENDBRANCH   7   9
ENDBRANCH   6   7
ENDBRANCH   4   6
BRANCH   4  11
ATOM     11  C11 <0> d          -0.244  -0.884   5.998  0.00  0.00     0.089 C 
ATOM     12  C16 <0> d          -1.484  -1.780   5.960  0.00  0.00     0.025 C 
ATOM     13  C15 <0> d          -1.576  -2.579   7.261  0.00  0.00     0.002 C 
ATOM     14  C14 <0> d          -0.325  -3.446   7.417  0.00  0.00     0.000 C 
ATOM     15  C13 <0> d           0.915  -2.550   7.455  0.00  0.00     0.002 C 
ATOM     16  C12 <0> d           1.007  -1.751   6.154  0.00  0.00     0.025 C 
ENDBRANCH   4  11
BRANCH   1  17
ATOM     17  C6  <0> d           0.009  -0.723   1.193  0.00  0.00     0.059 A 
ATOM     18  C2  <0> d           0.580  -0.136   0.067  0.00  0.00    -0.032 A 
ATOM     19  C1  <0> d           1.227   1.223   0.148  0.00  0.00     0.050 C 
ATOM     20  C3  <0> d           0.544  -0.835  -1.129  0.00  0.00     0.028 A 
ATOM     21  C4  <0> d          -0.057  -2.079  -1.166  0.00  0.00     0.117 A 
ATOM     22  N1  <0> d          -0.593  -2.606  -0.082  0.00  0.00    -0.271 NA
ATOM     23  C5  <0> d          -0.581  -1.975   1.075  0.00  0.00     0.146 A 
ENDBRANCH   1  17
TORSDOF 5
ENDMDL
MODEL ZINC97227680
REMARK  5 active torsions:
REMARK  status: ('A' for Active; 'I' for Inactive)
REMARK    1  A    between atoms: O1_2  and  C2_3 
REMARK    2  A    between atoms: C5_6  and  C8_9 
REMARK       I    between atoms: N1_13  and  C12_14 
REMARK    3  A    between atoms: C12_14  and  C13_16 
REMARK    4  A    between atoms: C13_16  and  S1_17 
REMARK    5  A    between atoms: S1_17  and  C14_18 
ROOT
ATOM      1  C8  <0> d           2.505  -2.503  -4.381  0.00  0.00     0.120 C 
ATOM      2  C9  <0> d           1.440  -2.976  -5.394  0.00  0.00     0.032 C 
ATOM      3  C10 <0> d           2.003  -4.338  -5.880  0.00  0.00     0.022 C 
ATOM      4  C11 <0> d           2.660  -4.882  -4.587  0.00  0.00     0.127 C 
ATOM      5  N1  <0> d           3.238  -3.694  -3.927  0.00  0.00    -0.343 N 
ATOM      6  C12 <0> d           4.265  -3.698  -3.054  0.00  0.00     0.230 C 
ATOM      7  O2  <0> d           4.656  -2.655  -2.573  0.00  0.00    -0.273 OA
ENDROOT
BRANCH   1   8
ATOM      8  C5  <0> d           1.835  -1.835  -3.209  0.00  0.00    -0.035 A 
ATOM      9  C4  <0> d           1.786  -0.455  -3.136  0.00  0.00     0.012 A 
ATOM     10  C3  <0> d           1.173   0.161  -2.062  0.00  0.00     0.037 A 
ATOM     11  C2  <0> d           0.606  -0.607  -1.056  0.00  0.00     0.068 A 
ATOM     12  C7  <0> d           0.661  -1.992  -1.128  0.00  0.00     0.037 A 
ATOM     13  C6  <0> d           1.270  -2.602  -2.207  0.00  0.00     0.012 A 
BRANCH  11  14
ATOM     14  O1  <0> d           0.002  -0.004   0.002  0.00  0.00    -0.356 OA
ATOM     15  C1  <0> d          -0.017   1.425   0.010  0.00  0.00     0.210 C 
ENDBRANCH  11  14
ENDBRANCH   1   8
BRANCH   6  16
ATOM     16  C13 <0> d           4.927  -4.997  -2.675  0.00  0.00     0.184 C 
BRANCH  16  17
ATOM     17  S1  <0> d           6.264  -4.673  -1.492  0.00  0.00    -0.098 SA
BRANCH  17  18
ATOM     18  C14 <0> d           6.929  -6.269  -1.153  0.00  0.00     0.134 A 
ATOM     19  N4  <0> d           6.523  -7.417  -1.661  0.00  0.00    -0.149 NA
ATOM     20  N3  <0> d           7.341  -8.414  -1.111  0.00  0.00    -0.196 N 
ATOM     21  N2  <0> d           8.182  -7.862  -0.309  0.00  0.00    -0.167 NA
ATOM     22  H2  <0> d           7.280  -9.364  -1.301  0.00  0.00     0.213 HD
ATOM     23  C15 <0> d           7.987  -6.567  -0.288  0.00  0.00     0.180 A 
ENDBRANCH  17  18
ENDBRANCH  16  17
ENDBRANCH   6  16
TORSDOF 5
ENDMDL
MODEL ZINC97551301
REMARK  2 active torsions:
REMARK  status: ('A' for Active; 'I' for Inactive)
REMARK    1  A    between atoms: N1_9  and  C8_12 
REMARK    2  A    between atoms: C8_12  and  C9_13 
REMARK       I    between atoms: C9_13  and  N3_15 
ROOT
ATOM      1  C9  <0> d           3.988  -3.814  -1.478  0.00  0.00     0.239 C 
ATOM      2  O2  <0> d           3.554  -3.146  -2.392  0.00  0.00    -0.271 OA
ATOM      3  N3  <0> d           4.701  -4.928  -1.737  0.00  0.00    -0.351 N 
ATOM      4  C10 <0> d           5.212  -5.724  -0.605  0.00  0.00     0.126 C 
ATOM      5  C11 <0> d           5.051  -7.239  -0.843  0.00  0.00     0.023 C 
ATOM      6  C12 <0> d           3.720  -7.529  -1.481  0.00  0.00     0.040 C 
ATOM      7  C13 <0> d           3.859  -7.537  -3.007  0.00  0.00     0.062 C 
ATOM      8  C14 <0> d           2.736  -8.447  -3.571  0.00  0.00     0.040 C 
ATOM      9  C15 <0> d           3.480  -9.258  -4.665  0.00  0.00     0.029 C 
ATOM     10  C16 <0> d           4.876  -9.414  -4.014  0.00  0.00     0.168 C 
ATOM     11  O3  <0> d           5.111  -8.175  -3.330  0.00  0.00    -0.380 OA
ATOM     12  C17 <0> d           3.784  -6.196  -3.615  0.00  0.00     0.058 C 
ATOM     13  C18 <0> d           4.933  -5.302  -3.114  0.00  0.00     0.129 C 
ENDROOT
BRANCH   1  14
ATOM     14  C8  <0> d           3.730  -3.399  -0.052  0.00  0.00     0.255 C 
BRANCH  14  15
ATOM     15  N1  <0> d           2.939  -2.166  -0.038  0.00  0.00    -0.247 N 
ATOM     16  C7  <0> d           1.592  -2.104  -0.025  0.00  0.00     0.275 A 
ATOM     17  C5  <0> d           1.221  -0.678  -0.013  0.00  0.00     0.061 A 
ATOM     18  O1  <0> d           0.827  -3.049  -0.023  0.00  0.00    -0.266 OA
ATOM     19  C4  <0> d           2.424   0.048  -0.021  0.00  0.00     0.064 A 
ATOM     20  C6  <0> d           0.002  -0.004   0.002  0.00  0.00     0.019 A 
ATOM     21  C3  <0> d           2.385   1.435  -0.013  0.00  0.00     0.032 A 
ATOM     22  N2  <0> d           3.463  -0.869  -0.036  0.00  0.00    -0.294 N 
ATOM     23  C2  <0> d           1.170   2.091   0.002  0.00  0.00     0.002 A 
ATOM     24  C1  <0> d          -0.017   1.375   0.010  0.00  0.00     0.001 A 
ATOM     25  H1  <0> d           4.407  -0.646  -0.044  0.00  0.00     0.187 HD
ENDBRANCH  14  15
ENDBRANCH   1  14
TORSDOF 2
ENDMDL
MODEL ZINC12759213
REMARK  5 active torsions:
REMARK  status: ('A' for Active; 'I' for Inactive)
REMARK    1  A    between atoms: C5_5  and  C8_8 
REMARK    2  A    between atoms: C8_8  and  C9_10 
REMARK    3  A    between atoms: C14_18  and  C15_19 
REMARK    4  A    between atoms: C15_19  and  C16_20 
REMARK       I    between atoms: C16_20  and  N3_22 
REMARK    5  A    between atoms: N3_22  and  C17_23 
ROOT
ATOM      1  C9  <0> d           0.198  -5.037   1.348  0.00  0.00     0.050 A 
ATOM      2  C10 <0> d           0.503  -6.387   1.469  0.00  0.00     0.117 A 
ATOM      3  N1  <0> d           0.607  -7.471   0.628  0.00  0.00    -0.374 N 
ATOM      4  C11 <0> d           0.975  -8.658   1.404  0.00  0.00     0.141 A 
ATOM      5  C12 <0> d           1.084  -8.154   2.852  0.00  0.00     0.153 A 
ATOM      6  N2  <0> d           0.766  -6.714   2.768  0.00  0.00    -0.301 N 
ATOM      7  C13 <0> d           0.664  -5.650   3.599  0.00  0.00     0.234 A 
ATOM      8  O2  <0> d           0.842  -5.649   4.798  0.00  0.00    -0.272 OA
ATOM      9  C14 <0> d           0.290  -4.461   2.743  0.00  0.00     0.128 A 
ATOM     10  H9  <0> d           0.460  -7.452  -0.331  0.00  0.00     0.161 HD
ENDROOT
BRANCH   9  11
ATOM     11  C15 <0> d           1.376  -3.385   2.810  0.00  0.00     0.122 C 
BRANCH  11  12
ATOM     12  C16 <0> d           1.348  -2.726   4.165  0.00  0.00     0.223 C 
ATOM     13  O3  <0> d           0.539  -3.082   4.996  0.00  0.00    -0.273 OA
ATOM     14  N3  <0> d           2.221  -1.741   4.454  0.00  0.00    -0.327 N 
ATOM     15  H16 <0> d           2.917  -1.509   3.820  0.00  0.00     0.169 HD
BRANCH  14  16
ATOM     16  C17 <0> d           2.125  -1.055   5.670  0.00  0.00     0.034 A 
ATOM     17  C22 <0> d           0.882  -0.846   6.254  0.00  0.00     0.029 A 
ATOM     18  C21 <0> d           0.791  -0.173   7.457  0.00  0.00     0.002 A 
ATOM     19  C20 <0> d           1.934   0.302   8.073  0.00  0.00     0.000 A 
ATOM     20  C19 <0> d           3.172   0.101   7.491  0.00  0.00     0.002 A 
ATOM     21  C18 <0> d           3.270  -0.576   6.291  0.00  0.00     0.029 A 
ENDBRANCH  14  16
ENDBRANCH  11  12
ENDBRANCH   9  11
BRANCH   1  22
ATOM     22  C8  <0> d          -0.123  -4.346   0.171  0.00  0.00     0.193 C 
ATOM     23  O1  <0> d           0.714  -4.215  -0.707  0.00  0.00    -0.287 OA
BRANCH  22  24
ATOM     24  C5  <0> d          -1.479  -3.778  -0.008  0.00  0.00     0.015 A 
ATOM     25  C4  <0> d          -1.771  -3.002  -1.130  0.00  0.00     0.016 A 
ATOM     26  C3  <0> d          -3.036  -2.476  -1.291  0.00  0.00     0.007 A 
ATOM     27  C2  <0> d          -4.014  -2.716  -0.342  0.00  0.00    -0.062 A 
ATOM     28  C1  <0> d          -5.394  -2.138  -0.524  0.00  0.00     0.048 C 
ATOM     29  C7  <0> d          -3.729  -3.479   0.776  0.00  0.00     0.007 A 
ATOM     30  C6  <0> d          -2.469  -4.016   0.945  0.00  0.00     0.016 A 
ENDBRANCH  22  24
ENDBRANCH   1  22
TORSDOF 5
ENDMDL
MODEL ZINC97759374
REMARK  4 active torsions:
REMARK  status: ('A' for Active; 'I' for Inactive)
REMARK    1  A    between atoms: C5_5  and  C6_7 
REMARK    2  A    between atoms: C10_11  and  C12_13 
REMARK    3  A    between atoms: C12_13  and  N1_14 
REMARK    4  A    between atoms: N2_17  and  C17_20 
ROOT
ATOM      1  N1  <0> d           6.005  -3.638  -1.377  0.00  0.00     0.095 N 
ATOM      2  C13 <0> d           5.947  -5.023  -1.864  0.00  0.00     0.292 C 
ATOM      3  C14 <0> d           6.149  -5.035  -3.383  0.00  0.00     0.155 C 
ATOM      4  N2  <0> d           7.395  -4.318  -3.695  0.00  0.00    -0.358 N 
ATOM      5  C15 <0> d           7.585  -2.975  -3.127  0.00  0.00     0.155 C 
ATOM      6  C16 <0> d           7.327  -3.043  -1.618  0.00  0.00     0.292 C 
ENDROOT
BRANCH   1   7
ATOM      7  C12 <0> d           5.646  -3.565   0.045  0.00  0.00     0.311 C 
BRANCH   7   8
ATOM      8  C10 <0> d           4.201  -3.954   0.219  0.00  0.00    -0.029 A 
ATOM      9  C9  <0> d           3.864  -5.277   0.440  0.00  0.00     0.009 A 
ATOM     10  C8  <0> d           2.539  -5.642   0.601  0.00  0.00     0.002 A 
ATOM     11  C7  <0> d           1.545  -4.688   0.543  0.00  0.00     0.014 A 
ATOM     12  C6  <0> d           1.878  -3.350   0.320  0.00  0.00    -0.002 A 
ATOM     13  C11 <0> d           3.216  -2.990   0.153  0.00  0.00     0.023 A 
BRANCH  12  14
ATOM     14  C5  <0> d           0.818  -2.322   0.256  0.00  0.00     0.086 A 
ATOM     15  C4  <0> d          -0.515  -2.541   0.401  0.00  0.00     0.040 A 
ATOM     16  C3  <0> d          -1.149  -1.290   0.267  0.00  0.00     0.035 A 
ATOM     17  C2  <0> d          -0.181  -0.379   0.049  0.00  0.00     0.050 A 
ATOM     18  C1  <0> d          -0.395   1.099  -0.155  0.00  0.00     0.076 C 
ATOM     19  O1  <0> d           1.006  -1.007   0.036  0.00  0.00    -0.315 OA
ENDBRANCH  12  14
ENDBRANCH   7   8
ENDBRANCH   1   7
BRANCH   4  20
ATOM     20  C17 <0> d           8.366  -4.894  -4.504  0.00  0.00     0.194 A 
ATOM     21  N4  <0> d           9.534  -4.309  -4.664  0.00  0.00    -0.237 NA
ATOM     22  C20 <0> d          10.472  -4.859  -5.434  0.00  0.00     0.136 A 
ATOM     23  C19 <0> d          10.263  -6.023  -6.086  0.00  0.00     0.111 A 
ATOM     24  N3  <0> d           9.076  -6.685  -5.973  0.00  0.00    -0.329 N 
ATOM     25  C18 <0> d           8.102  -6.161  -5.196  0.00  0.00     0.291 A 
ATOM     26  H22 <0> d           8.933  -7.521  -6.444  0.00  0.00     0.168 HD
ATOM     27  O2  <0> d           7.029  -6.727  -5.074  0.00  0.00    -0.264 OA
ENDBRANCH   4  20
TORSDOF 4
ENDMDL
MODEL ZINC15017416
REMARK  5 active torsions:
REMARK  status: ('A' for Active; 'I' for Inactive)
REMARK    1  A    between atoms: C2_2  and  O1_3 
REMARK    2  A    between atoms: O1_3  and  C3_4 
REMARK    3  A    between atoms: C6_7  and  C10_12 
REMARK    4  A    between atoms: C8_9  and  O2_10 
REMARK    5  A    between atoms: C10_12  and  C11_13 
ROOT
ATOM      1  C11 <0> d          -2.048  -6.610   1.429  0.00  0.00     0.117 A 
ATOM      2  C12 <0> d          -2.146  -8.118   1.451  0.00  0.00    -0.017 A 
ATOM      3  C13 <0> d          -1.316  -9.117   0.992  0.00  0.00     0.010 A 
ATOM      4  C14 <0> d          -1.677 -10.443   1.156  0.00  0.00     0.001 A 
ATOM      5  C15 <0> d          -2.869 -10.760   1.780  0.00  0.00     0.009 A 
ATOM      6  C16 <0> d          -3.702  -9.761   2.241  0.00  0.00    -0.035 A 
ATOM      7  C17 <0> d          -3.346  -8.423   2.080  0.00  0.00     0.048 A 
ATOM      8  N1  <0> d          -4.006  -7.252   2.453  0.00  0.00    -0.326 N 
ATOM      9  C18 <0> d          -3.317  -6.146   2.112  0.00  0.00     0.231 A 
ATOM     10  O3  <0> d          -3.649  -4.997   2.314  0.00  0.00    -0.272 OA
ATOM     11  C19 <0> d          -4.999 -10.118   2.920  0.00  0.00     0.050 C 
ATOM     12  H18 <0> d          -4.863  -7.236   2.907  0.00  0.00     0.169 HD
ENDROOT
BRANCH   1  13
ATOM     13  C10 <0> d          -1.996  -6.097  -0.011  0.00  0.00     0.057 C 
BRANCH  13  14
ATOM     14  C6  <0> d          -1.823  -4.600  -0.005  0.00  0.00    -0.054 A 
ATOM     15  C5  <0> d          -0.553  -4.052  -0.008  0.00  0.00     0.010 A 
ATOM     16  C4  <0> d          -0.389  -2.680  -0.003  0.00  0.00     0.040 A 
ATOM     17  C3  <0> d          -1.498  -1.849   0.006  0.00  0.00     0.102 A 
ATOM     18  C8  <0> d          -2.776  -2.400   0.016  0.00  0.00     0.102 A 
ATOM     19  C7  <0> d          -2.934  -3.777   0.004  0.00  0.00     0.046 A 
BRANCH  17  20
ATOM     20  O1  <0> d          -1.339  -0.499   0.012  0.00  0.00    -0.349 OA
BRANCH  20  21
ATOM     21  C2  <0> d           0.002  -0.004   0.002  0.00  0.00     0.171 C 
ATOM     22  C1  <0> d          -0.019   1.526   0.010  0.00  0.00     0.034 C 
ENDBRANCH  20  21
ENDBRANCH  17  20
BRANCH  18  23
ATOM     23  O2  <0> d          -3.868  -1.589   0.030  0.00  0.00    -0.353 OA
ATOM     24  C9  <0> d          -5.148  -2.225   0.039  0.00  0.00     0.210 C 
ENDBRANCH  18  23
ENDBRANCH  13  14
ENDBRANCH   1  13
TORSDOF 5
ENDMDL
MODEL ZINC09614151
REMARK  4 active torsions:
REMARK  status: ('A' for Active; 'I' for Inactive)
REMARK    1  A    between atoms: C5_5  and  N2_17 
REMARK    2  A    between atoms: C7_7  and  S1_8 
REMARK    3  A    between atoms: S1_8  and  N1_11 
REMARK       I    between atoms: N2_17  and  C13_18 
REMARK    4  A    between atoms: C13_18  and  C14_20 
ROOT
ATOM      1  C1  <0> d          -0.378   0.654  -0.508  0.00  0.00     0.050 C 
ATOM      2  C2  <0> d          -0.105  -0.811  -0.283  0.00  0.00    -0.039 A 
ATOM      3  C3  <0> d          -0.166  -1.695  -1.346  0.00  0.00     0.010 A 
ATOM      4  C4  <0> d           0.083  -3.038  -1.143  0.00  0.00     0.030 A 
ATOM      5  C5  <0> d           0.395  -3.501   0.129  0.00  0.00     0.036 A 
ATOM      6  C6  <0> d           0.455  -2.611   1.193  0.00  0.00     0.055 A 
ATOM      7  C7  <0> d           0.210  -1.267   0.983  0.00  0.00     0.087 A 
ENDROOT
BRANCH   5   8
ATOM      8  N2  <0> d           0.647  -4.860   0.338  0.00  0.00    -0.323 N 
ATOM      9  C13 <0> d           0.285  -5.443   1.498  0.00  0.00     0.257 C 
ATOM     10  O3  <0> d          -0.344  -4.811   2.325  0.00  0.00    -0.267 OA
ATOM     11  H17 <0> d           1.083  -5.384  -0.353  0.00  0.00     0.169 HD
BRANCH   9  12
ATOM     12  C14 <0> d           0.653  -6.849   1.765  0.00  0.00     0.044 A 
ATOM     13  C19 <0> d          -0.205  -7.883   1.386  0.00  0.00    -0.045 A 
ATOM     14  C18 <0> d           0.147  -9.193   1.634  0.00  0.00     0.014 A 
ATOM     15  C20 <0> d          -1.510  -7.567   0.702  0.00  0.00     0.049 C 
ATOM     16  C17 <0> d           1.343  -9.484   2.267  0.00  0.00    -0.061 A 
ATOM     17  C16 <0> d           2.195  -8.464   2.650  0.00  0.00     0.014 A 
ATOM     18  C21 <0> d           1.718 -10.918   2.539  0.00  0.00     0.048 C 
ATOM     19  C15 <0> d           1.858  -7.149   2.403  0.00  0.00    -0.045 A 
ATOM     20  C22 <0> d           2.788  -6.040   2.821  0.00  0.00     0.049 C 
ENDBRANCH   9  12
ENDBRANCH   5   8
BRANCH   7  21
ATOM     21  S1  <0> d           0.294  -0.136   2.331  0.00  0.00     0.261 S 
ATOM     22  O1  <0> d          -0.835   0.720   2.213  0.00  0.00    -0.200 OA
ATOM     23  O2  <0> d           0.545  -0.910   3.496  0.00  0.00    -0.200 OA
BRANCH  21  24
ATOM     24  N1  <0> d           1.632   0.810   2.094  0.00  0.00    -0.307 N 
ATOM     25  C12 <0> d           1.520   2.108   1.414  0.00  0.00     0.135 C 
ATOM     26  C11 <0> d           2.512   2.150   0.254  0.00  0.00     0.021 C 
ATOM     27  C10 <0> d           3.916   1.831   0.774  0.00  0.00     0.003 C 
ATOM     28  C9  <0> d           3.932   0.424   1.375  0.00  0.00     0.021 C 
ATOM     29  C8  <0> d           2.954   0.365   2.554  0.00  0.00     0.135 C 
ENDBRANCH  21  24
ENDBRANCH   7  21
TORSDOF 4
ENDMDL
MODEL ZINC24971763
REMARK  6 active torsions:
REMARK  status: ('A' for Active; 'I' for Inactive)
REMARK    1  A    between atoms: C5_5  and  N1_9 
REMARK    2  A    between atoms: C9_13  and  S1_14 
REMARK    3  A    between atoms: S1_14  and  C10_15 
REMARK    4  A    between atoms: C10_15  and  C12_17 
REMARK       I    between atoms: C12_17  and  N4_19 
REMARK    5  A    between atoms: N4_19  and  C13_20 
REMARK    6  A    between atoms: C15_22  and  N5_27 
ROOT
ATOM      1  C10 <0> d           2.916  -6.042   2.339  0.00  0.00     0.143 C 
ATOM      2  C11 <0> d           3.543  -6.774   1.151  0.00  0.00     0.031 C 
ENDROOT
BRANCH   1   3
ATOM      3  S1  <0> d           2.190  -4.479   1.771  0.00  0.00    -0.076 SA
BRANCH   3   4
ATOM      4  C9  <0> d           0.886  -4.981   0.697  0.00  0.00     0.196 A 
ATOM      5  N1  <0> d           0.033  -4.158   0.014  0.00  0.00    -0.282 N 
ATOM      6  C8  <0> d          -0.799  -4.989  -0.688  0.00  0.00     0.241 A 
ATOM      7  N2  <0> d          -0.444  -6.213  -0.415  0.00  0.00    -0.142 NA
ATOM      8  N3  <0> d           0.546  -6.214   0.404  0.00  0.00    -0.123 NA
BRANCH   5   9
ATOM      9  C5  <0> d           0.017  -2.755   0.025  0.00  0.00     0.044 A 
ATOM     10  C4  <0> d          -0.005  -2.051  -1.171  0.00  0.00     0.031 A 
ATOM     11  C3  <0> d          -0.021  -0.670  -1.158  0.00  0.00     0.011 A 
ATOM     12  C2  <0> d          -0.014   0.012   0.045  0.00  0.00    -0.040 A 
ATOM     13  C1  <0> d          -0.032   1.519   0.055  0.00  0.00     0.050 C 
ATOM     14  C7  <0> d           0.014  -0.687   1.239  0.00  0.00     0.042 A 
ATOM     15  C6  <0> d           0.025  -2.070   1.231  0.00  0.00     0.054 A 
ATOM     16 Cl1  <0> d           0.029   0.172   2.747  0.00  0.00    -0.084 Cl
ENDBRANCH   5   9
ENDBRANCH   3   4
ENDBRANCH   1   3
BRANCH   1  17
ATOM     17  C12 <0> d           3.977  -5.757   3.371  0.00  0.00     0.236 C 
ATOM     18  O1  <0> d           4.478  -4.655   3.437  0.00  0.00    -0.272 OA
ATOM     19  N4  <0> d           4.369  -6.728   4.219  0.00  0.00    -0.325 N 
ATOM     20  H12 <0> d           3.924  -7.590   4.210  0.00  0.00     0.169 HD
BRANCH  19  21
ATOM     21  C13 <0> d           5.419  -6.493   5.115  0.00  0.00     0.059 A 
ATOM     22  C18 <0> d           6.290  -7.521   5.453  0.00  0.00     0.060 A 
ATOM     23  C17 <0> d           7.328  -7.284   6.333  0.00  0.00     0.028 A 
ATOM     24 Cl2  <0> d           6.077  -9.101   4.765  0.00  0.00    -0.082 Cl
ATOM     25  C16 <0> d           7.494  -6.027   6.885  0.00  0.00     0.038 A 
ATOM     26  C15 <0> d           6.626  -5.003   6.554  0.00  0.00     0.105 A 
ATOM     27  C14 <0> d           5.590  -5.232   5.671  0.00  0.00     0.067 A 
BRANCH  26  28
ATOM     28  N5  <0> d           6.809  -3.659   7.148  0.00  0.00    -0.116 N 
ATOM     29  O2  <0> d           6.050  -2.763   6.859  0.00  0.00    -0.532 OA
ATOM     30  O3  <0> d           7.716  -3.458   7.921  0.00  0.00    -0.532 OA
ENDBRANCH  26  28
ENDBRANCH  19  21
ENDBRANCH   1  17
TORSDOF 6
ENDMDL
MODEL ZINC62556421
REMARK  2 active torsions:
REMARK  status: ('A' for Active; 'I' for Inactive)
REMARK    1  A    between atoms: C2_2  and  C4_4 
REMARK    2  A    between atoms: C8_8  and  N1_10 
ROOT
ATOM      1  C4  <0> d           0.731  -0.503   1.223  0.00  0.00    -0.050 A 
ATOM      2  C5  <0> d           2.051  -0.146   1.431  0.00  0.00     0.040 A 
ATOM      3  C6  <0> d           2.723  -0.604   2.554  0.00  0.00     0.071 A 
ATOM      4  C7  <0> d           2.070  -1.424   3.470  0.00  0.00     0.122 A 
ATOM      5  C8  <0> d           0.744  -1.780   3.258  0.00  0.00     0.067 A 
ATOM      6  C9  <0> d           0.076  -1.312   2.133  0.00  0.00     0.039 A 
ATOM      7  O1  <0> d           2.741  -1.869   4.567  0.00  0.00    -0.337 OA
ATOM      8  C14 <0> d           4.141  -2.111   4.410  0.00  0.00     0.278 C 
ATOM      9  C15 <0> d           4